Initialize SIGNATURE TABLE
ST_SET: 1
ST_WAY: 256
ST_TAG_BIT: 16
ST_TAG_MASK: ffff

Initialize PATTERN TABLE
PT_SET: 512
PT_WAY: 4
SIG_DELTA_BIT: 7
C_SIG_BIT: 4
C_DELTA_BIT: 4

Initialize PREFETCH FILTER
FILTER_SET: 1024

*** ChampSim Multicore Out-of-Order Simulator ***

Warmup Instructions: 50000000
Simulation Instructions: 50000000
Number of CPUs: 1
LLC sets: 2048
LLC ways: 16
Off-chip DRAM Size: 4096 MB Channels: 1 Width: 64-bit Data Rate: 3200 MT/s

CPU 0 runs /home/ykhodke/ChampSim/dpc3_traces/607.cactuBSSN_s-2421B.champsimtrace.xz
CPU 0 L1D next line prefetcher
Heartbeat CPU 0 instructions: 10000002 cycles: 4829507 heartbeat IPC: 2.07061 cumulative IPC: 2.07061 (Simulation time: 0 hr 0 min 18 sec) 
Heartbeat CPU 0 instructions: 20000001 cycles: 9656120 heartbeat IPC: 2.07185 cumulative IPC: 2.07123 (Simulation time: 0 hr 0 min 35 sec) 
Heartbeat CPU 0 instructions: 30000002 cycles: 14485097 heartbeat IPC: 2.07083 cumulative IPC: 2.07109 (Simulation time: 0 hr 0 min 53 sec) 
Heartbeat CPU 0 instructions: 40000003 cycles: 19313285 heartbeat IPC: 2.07117 cumulative IPC: 2.07111 (Simulation time: 0 hr 1 min 10 sec) 
Heartbeat CPU 0 instructions: 50000000 cycles: 24142412 heartbeat IPC: 2.07077 cumulative IPC: 2.07104 (Simulation time: 0 hr 1 min 27 sec) 

Warmup complete CPU 0 instructions: 50000004 cycles: 24142413 (Simulation time: 0 hr 1 min 27 sec) 

Heartbeat CPU 0 instructions: 60000000 cycles: 29644934 heartbeat IPC: 1.81735 cumulative IPC: 1.81735 (Simulation time: 0 hr 1 min 44 sec) 
Heartbeat CPU 0 instructions: 70000003 cycles: 34680815 heartbeat IPC: 1.98575 cumulative IPC: 1.89782 (Simulation time: 0 hr 2 min 0 sec) 
Heartbeat CPU 0 instructions: 80000001 cycles: 39723602 heartbeat IPC: 1.98303 cumulative IPC: 1.9254 (Simulation time: 0 hr 2 min 16 sec) 
Heartbeat CPU 0 instructions: 90000000 cycles: 44773483 heartbeat IPC: 1.98024 cumulative IPC: 1.93882 (Simulation time: 0 hr 2 min 33 sec) 
Heartbeat CPU 0 instructions: 100000002 cycles: 49807946 heartbeat IPC: 1.98631 cumulative IPC: 1.94814 (Simulation time: 0 hr 2 min 49 sec) 
Finished CPU 0 instructions: 50000002 cycles: 25665534 cumulative IPC: 1.94814 (Simulation time: 0 hr 2 min 49 sec) 

ChampSim completed all CPUs

Region of Interest Statistics

CPU 0 cumulative IPC: 1.94814 instructions: 50000002 cycles: 25665534
L1D TOTAL     ACCESS:   21065657  HIT:   11658607  MISS:    9407050
L1D LOAD      ACCESS:    8743472  HIT:    3406636  MISS:    5336836
L1D RFO       ACCESS:    5576180  HIT:    5164245  MISS:     411935
L1D PREFETCH  ACCESS:    6746005  HIT:    3087726  MISS:    3658279
L1D WRITEBACK ACCESS:          0  HIT:          0  MISS:          0
L1D PREFETCH  REQUESTED:    8857170  ISSUED:    7032279  USEFUL:      26605  USELESS:    3631717
L1D AVERAGE MISS LATENCY: 22.1127 cycles
L1I TOTAL     ACCESS:    7174628  HIT:    7124951  MISS:      49677
L1I LOAD      ACCESS:    7110427  HIT:    7109231  MISS:       1196
L1I RFO       ACCESS:          0  HIT:          0  MISS:          0
L1I PREFETCH  ACCESS:      64201  HIT:      15720  MISS:      48481
L1I WRITEBACK ACCESS:          0  HIT:          0  MISS:          0
L1I PREFETCH  REQUESTED:      65246  ISSUED:      65246  USEFUL:      48459  USELESS:         24
L1I AVERAGE MISS LATENCY: 16.6451 cycles
L2C TOTAL     ACCESS:   12864622  HIT:   12385827  MISS:     478795
L2C LOAD      ACCESS:    5234771  HIT:    5223110  MISS:      11661
L2C RFO       ACCESS:     409640  HIT:     408478  MISS:       1162
L2C PREFETCH  ACCESS:    6743547  HIT:    6277579  MISS:     465968
L2C WRITEBACK ACCESS:     476664  HIT:     476660  MISS:          4
L2C PREFETCH  REQUESTED:    9769751  ISSUED:    8012288  USEFUL:     461518  USELESS:       4431
L2C AVERAGE MISS LATENCY: 87.5298 cycles
LLC TOTAL     ACCESS:    1499872  HIT:    1121122  MISS:     378750
LLC LOAD      ACCESS:      11558  HIT:       4032  MISS:       7526
LLC RFO       ACCESS:       1159  HIT:         57  MISS:       1102
LLC PREFETCH  ACCESS:    1439864  HIT:    1069788  MISS:     370076
LLC WRITEBACK ACCESS:      47291  HIT:      47245  MISS:         46
LLC PREFETCH  REQUESTED:          0  ISSUED:          0  USEFUL:       2404  USELESS:     360891
LLC AVERAGE MISS LATENCY: 351.531 cycles
Major fault: 0 Minor fault: 8501
CPU 0 L1D next line prefetcher final stats

DRAM Statistics
 CHANNEL 0
 RQ ROW_BUFFER_HIT:     202291  ROW_BUFFER_MISS:     176411
 DBUS_CONGESTED:      81299
 WQ ROW_BUFFER_HIT:      22331  ROW_BUFFER_MISS:      27278  FULL:          0

 AVG_CONGESTED_CYCLE: 5

CPU 0 Branch Prediction Accuracy: 98.9707% MPKI: 0.02072 Average ROB Occupancy at Mispredict: 72.9817

Branch types
NOT_BRANCH: 49899106 99.7982%
BRANCH_DIRECT_JUMP: 16920 0.03384%
BRANCH_INDIRECT: 14629 0.029258%
BRANCH_CONDITIONAL: 57072 0.114144%
BRANCH_DIRECT_CALL: 6013 0.012026%
BRANCH_INDIRECT_CALL: 3 6e-06%
BRANCH_RETURN: 6018 0.012036%
BRANCH_OTHER: 0 0%

