Initialize SIGNATURE TABLE
ST_SET: 1
ST_WAY: 256
ST_TAG_BIT: 16
ST_TAG_MASK: ffff

Initialize PATTERN TABLE
PT_SET: 512
PT_WAY: 4
SIG_DELTA_BIT: 7
C_SIG_BIT: 4
C_DELTA_BIT: 4

Initialize PREFETCH FILTER
FILTER_SET: 1024

*** ChampSim Multicore Out-of-Order Simulator ***

Warmup Instructions: 50000000
Simulation Instructions: 50000000
Number of CPUs: 1
LLC sets: 2048
LLC ways: 16
Off-chip DRAM Size: 4096 MB Channels: 1 Width: 64-bit Data Rate: 3200 MT/s

CPU 0 runs /home/ykhodke/ChampSim/dpc3_traces/619.lbm_s-4268B.champsimtrace.xz
CPU 0 L1D next line prefetcher
Heartbeat CPU 0 instructions: 10000002 cycles: 3517385 heartbeat IPC: 2.84302 cumulative IPC: 2.84302 (Simulation time: 0 hr 0 min 15 sec) 
Heartbeat CPU 0 instructions: 20000003 cycles: 7033322 heartbeat IPC: 2.84419 cumulative IPC: 2.84361 (Simulation time: 0 hr 0 min 30 sec) 
Heartbeat CPU 0 instructions: 30000001 cycles: 10542544 heartbeat IPC: 2.84963 cumulative IPC: 2.84561 (Simulation time: 0 hr 0 min 45 sec) 
Heartbeat CPU 0 instructions: 40000000 cycles: 14064763 heartbeat IPC: 2.83912 cumulative IPC: 2.84399 (Simulation time: 0 hr 1 min 0 sec) 
Heartbeat CPU 0 instructions: 50000000 cycles: 17587598 heartbeat IPC: 2.83862 cumulative IPC: 2.84291 (Simulation time: 0 hr 1 min 15 sec) 

Warmup complete CPU 0 instructions: 50000004 cycles: 17587599 (Simulation time: 0 hr 1 min 15 sec) 

Heartbeat CPU 0 instructions: 60000002 cycles: 40017596 heartbeat IPC: 0.445832 cumulative IPC: 0.445831 (Simulation time: 0 hr 1 min 41 sec) 
Heartbeat CPU 0 instructions: 70000000 cycles: 61862654 heartbeat IPC: 0.457769 cumulative IPC: 0.451722 (Simulation time: 0 hr 2 min 6 sec) 
Heartbeat CPU 0 instructions: 80000000 cycles: 83475920 heartbeat IPC: 0.462679 cumulative IPC: 0.455316 (Simulation time: 0 hr 2 min 32 sec) 
Heartbeat CPU 0 instructions: 90000001 cycles: 105332356 heartbeat IPC: 0.457531 cumulative IPC: 0.455868 (Simulation time: 0 hr 2 min 57 sec) 
Heartbeat CPU 0 instructions: 100000001 cycles: 126695236 heartbeat IPC: 0.468102 cumulative IPC: 0.458263 (Simulation time: 0 hr 3 min 22 sec) 
Finished CPU 0 instructions: 50000001 cycles: 109107638 cumulative IPC: 0.458263 (Simulation time: 0 hr 3 min 22 sec) 

ChampSim completed all CPUs

Region of Interest Statistics

CPU 0 cumulative IPC: 0.458263 instructions: 50000001 cycles: 109107638
L1D TOTAL     ACCESS:   16125683  HIT:   12205773  MISS:    3919910
L1D LOAD      ACCESS:    3868667  HIT:    3368187  MISS:     500480
L1D RFO       ACCESS:    9019359  HIT:    5693597  MISS:    3325762
L1D PREFETCH  ACCESS:    3237657  HIT:    3143989  MISS:      93668
L1D WRITEBACK ACCESS:          0  HIT:          0  MISS:          0
L1D PREFETCH  REQUESTED:    4001053  ISSUED:    3969457  USEFUL:      93510  USELESS:        158
L1D AVERAGE MISS LATENCY: 371.367 cycles
L1I TOTAL     ACCESS:    7796685  HIT:    7796685  MISS:          0
L1I LOAD      ACCESS:    7796685  HIT:    7796685  MISS:          0
L1I RFO       ACCESS:          0  HIT:          0  MISS:          0
L1I PREFETCH  ACCESS:          0  HIT:          0  MISS:          0
L1I WRITEBACK ACCESS:          0  HIT:          0  MISS:          0
L1I PREFETCH  REQUESTED:          0  ISSUED:          0  USEFUL:          0  USELESS:          0
L1I AVERAGE MISS LATENCY: -nan cycles
L2C TOTAL     ACCESS:    7298291  HIT:    4896411  MISS:    2401880
L2C LOAD      ACCESS:     424936  HIT:      30432  MISS:     394504
L2C RFO       ACCESS:    3325758  HIT:    1518066  MISS:    1807692
L2C PREFETCH  ACCESS:     221831  HIT:      22286  MISS:     199545
L2C WRITEBACK ACCESS:    3325766  HIT:    3325627  MISS:        139
L2C PREFETCH  REQUESTED:    1593418  ISSUED:    1593418  USEFUL:      30407  USELESS:     169099
L2C AVERAGE MISS LATENCY: 602.231 cycles
LLC TOTAL     ACCESS:    4521628  HIT:    2145882  MISS:    2375746
LLC LOAD      ACCESS:     368993  HIT:     166833  MISS:     202160
LLC RFO       ACCESS:    1807691  HIT:      26128  MISS:    1781563
LLC PREFETCH  ACCESS:     534967  HIT:     143063  MISS:     391904
LLC WRITEBACK ACCESS:    1809977  HIT:    1809858  MISS:        119
LLC PREFETCH  REQUESTED:          0  ISSUED:          0  USEFUL:     166815  USELESS:     225272
LLC AVERAGE MISS LATENCY: 635.613 cycles
Major fault: 0 Minor fault: 40055
CPU 0 L1D next line prefetcher final stats

DRAM Statistics
 CHANNEL 0
 RQ ROW_BUFFER_HIT:     150016  ROW_BUFFER_MISS:    2225611
 DBUS_CONGESTED:    2721718
 WQ ROW_BUFFER_HIT:     344406  ROW_BUFFER_MISS:    1440737  FULL:          0

 AVG_CONGESTED_CYCLE: 6

CPU 0 Branch Prediction Accuracy: 97.0984% MPKI: 0.5204 Average ROB Occupancy at Mispredict: 283.443

Branch types
NOT_BRANCH: 49103160 98.2063%
BRANCH_DIRECT_JUMP: 145480 0.29096%
BRANCH_INDIRECT: 0 0%
BRANCH_CONDITIONAL: 751272 1.50254%
BRANCH_DIRECT_CALL: 0 0%
BRANCH_INDIRECT_CALL: 0 0%
BRANCH_RETURN: 0 0%
BRANCH_OTHER: 0 0%

