Initialize SIGNATURE TABLE
ST_SET: 1
ST_WAY: 256
ST_TAG_BIT: 16
ST_TAG_MASK: ffff

Initialize PATTERN TABLE
PT_SET: 512
PT_WAY: 4
SIG_DELTA_BIT: 7
C_SIG_BIT: 4
C_DELTA_BIT: 4

Initialize PREFETCH FILTER
FILTER_SET: 1024

*** ChampSim Multicore Out-of-Order Simulator ***

Warmup Instructions: 50000000
Simulation Instructions: 50000000
Number of CPUs: 1
LLC sets: 2048
LLC ways: 16
Off-chip DRAM Size: 4096 MB Channels: 1 Width: 64-bit Data Rate: 3200 MT/s

CPU 0 runs /home/ykhodke/ChampSim/dpc3_traces/620.omnetpp_s-874B.champsimtrace.xz
CPU 0 L1D next line prefetcher
Heartbeat CPU 0 instructions: 10000001 cycles: 5588325 heartbeat IPC: 1.78945 cumulative IPC: 1.78945 (Simulation time: 0 hr 0 min 21 sec) 
Heartbeat CPU 0 instructions: 20000001 cycles: 11176458 heartbeat IPC: 1.78951 cumulative IPC: 1.78948 (Simulation time: 0 hr 0 min 42 sec) 
Heartbeat CPU 0 instructions: 30000002 cycles: 16757289 heartbeat IPC: 1.79185 cumulative IPC: 1.79027 (Simulation time: 0 hr 1 min 2 sec) 
Heartbeat CPU 0 instructions: 40000000 cycles: 22353902 heartbeat IPC: 1.78679 cumulative IPC: 1.7894 (Simulation time: 0 hr 1 min 23 sec) 
Heartbeat CPU 0 instructions: 50000000 cycles: 27942917 heartbeat IPC: 1.78922 cumulative IPC: 1.78936 (Simulation time: 0 hr 1 min 44 sec) 

Warmup complete CPU 0 instructions: 50000001 cycles: 27942918 (Simulation time: 0 hr 1 min 44 sec) 

Heartbeat CPU 0 instructions: 60000001 cycles: 54293162 heartbeat IPC: 0.379503 cumulative IPC: 0.379503 (Simulation time: 0 hr 2 min 9 sec) 
Heartbeat CPU 0 instructions: 70000002 cycles: 80090403 heartbeat IPC: 0.387638 cumulative IPC: 0.383528 (Simulation time: 0 hr 2 min 34 sec) 
Heartbeat CPU 0 instructions: 80000002 cycles: 106333494 heartbeat IPC: 0.381053 cumulative IPC: 0.382699 (Simulation time: 0 hr 2 min 59 sec) 
Heartbeat CPU 0 instructions: 90000003 cycles: 131995458 heartbeat IPC: 0.389682 cumulative IPC: 0.384421 (Simulation time: 0 hr 3 min 24 sec) 
Heartbeat CPU 0 instructions: 100000000 cycles: 158543496 heartbeat IPC: 0.376676 cumulative IPC: 0.382847 (Simulation time: 0 hr 3 min 49 sec) 
Finished CPU 0 instructions: 50000000 cycles: 130600580 cumulative IPC: 0.382847 (Simulation time: 0 hr 3 min 49 sec) 

ChampSim completed all CPUs

Region of Interest Statistics

CPU 0 cumulative IPC: 0.382847 instructions: 50000000 cycles: 130600580
L1D TOTAL     ACCESS:   32212789  HIT:   30750662  MISS:    1462127
L1D LOAD      ACCESS:   11732278  HIT:   11006119  MISS:     726159
L1D RFO       ACCESS:    8992852  HIT:    8923343  MISS:      69509
L1D PREFETCH  ACCESS:   11487659  HIT:   10821200  MISS:     666459
L1D WRITEBACK ACCESS:          0  HIT:          0  MISS:          0
L1D PREFETCH  REQUESTED:   11768132  ISSUED:   11716253  USEFUL:     150544  USELESS:     515915
L1D AVERAGE MISS LATENCY: 117.059 cycles
L1I TOTAL     ACCESS:   11222175  HIT:   11151223  MISS:      70952
L1I LOAD      ACCESS:   11108858  HIT:   11105715  MISS:       3143
L1I RFO       ACCESS:          0  HIT:          0  MISS:          0
L1I PREFETCH  ACCESS:     113317  HIT:      45508  MISS:      67809
L1I WRITEBACK ACCESS:          0  HIT:          0  MISS:          0
L1I PREFETCH  REQUESTED:     118833  ISSUED:     118833  USEFUL:      49857  USELESS:      17959
L1I AVERAGE MISS LATENCY: 21.0331 cycles
L2C TOTAL     ACCESS:    2204636  HIT:    1240943  MISS:     963693
L2C LOAD      ACCESS:     715340  HIT:     258531  MISS:     456809
L2C RFO       ACCESS:      65024  HIT:      14058  MISS:      50966
L2C PREFETCH  ACCESS:     950511  HIT:     495464  MISS:     455047
L2C WRITEBACK ACCESS:     473761  HIT:     472890  MISS:        871
L2C PREFETCH  REQUESTED:    1439607  ISSUED:    1439606  USEFUL:      29890  USELESS:     425243
L2C AVERAGE MISS LATENCY: 148.107 cycles
LLC TOTAL     ACCESS:    1946026  HIT:     925814  MISS:    1020212
LLC LOAD      ACCESS:     456789  HIT:     157312  MISS:     299477
LLC RFO       ACCESS:      50965  HIT:      18498  MISS:      32467
LLC PREFETCH  ACCESS:    1107601  HIT:     425853  MISS:     681748
LLC WRITEBACK ACCESS:     330671  HIT:     324151  MISS:       6520
LLC PREFETCH  REQUESTED:          0  ISSUED:          0  USEFUL:      79455  USELESS:     601511
LLC AVERAGE MISS LATENCY: 175.502 cycles
Major fault: 0 Minor fault: 46163
CPU 0 L1D next line prefetcher final stats

DRAM Statistics
 CHANNEL 0
 RQ ROW_BUFFER_HIT:     102650  ROW_BUFFER_MISS:     911039
 DBUS_CONGESTED:     551220
 WQ ROW_BUFFER_HIT:      34863  ROW_BUFFER_MISS:     221357  FULL:          0

 AVG_CONGESTED_CYCLE: 4

CPU 0 Branch Prediction Accuracy: 98.2025% MPKI: 3.73946 Average ROB Occupancy at Mispredict: 94.3819

Branch types
NOT_BRANCH: 39597984 79.196%
BRANCH_DIRECT_JUMP: 567491 1.13498%
BRANCH_INDIRECT: 167850 0.3357%
BRANCH_CONDITIONAL: 6697264 13.3945%
BRANCH_DIRECT_CALL: 888054 1.77611%
BRANCH_INDIRECT_CALL: 596602 1.1932%
BRANCH_RETURN: 1484650 2.9693%
BRANCH_OTHER: 0 0%

