Initialize SIGNATURE TABLE
ST_SET: 1
ST_WAY: 256
ST_TAG_BIT: 16
ST_TAG_MASK: ffff

Initialize PATTERN TABLE
PT_SET: 512
PT_WAY: 4
SIG_DELTA_BIT: 7
C_SIG_BIT: 4
C_DELTA_BIT: 4

Initialize PREFETCH FILTER
FILTER_SET: 1024

*** ChampSim Multicore Out-of-Order Simulator ***

Warmup Instructions: 50000000
Simulation Instructions: 50000000
Number of CPUs: 1
LLC sets: 2048
LLC ways: 16
Off-chip DRAM Size: 4096 MB Channels: 1 Width: 64-bit Data Rate: 3200 MT/s

CPU 0 runs /home/ykhodke/ChampSim/dpc3_traces/621.wrf_s-575B.champsimtrace.xz
CPU 0 L1D next line prefetcher
Heartbeat CPU 0 instructions: 10000000 cycles: 4328661 heartbeat IPC: 2.31018 cumulative IPC: 2.31018 (Simulation time: 0 hr 0 min 16 sec) 
Heartbeat CPU 0 instructions: 20000002 cycles: 8673308 heartbeat IPC: 2.30168 cumulative IPC: 2.30593 (Simulation time: 0 hr 0 min 32 sec) 
Heartbeat CPU 0 instructions: 30000000 cycles: 13029330 heartbeat IPC: 2.29567 cumulative IPC: 2.3025 (Simulation time: 0 hr 0 min 48 sec) 
Heartbeat CPU 0 instructions: 40000002 cycles: 17381174 heartbeat IPC: 2.29788 cumulative IPC: 2.30134 (Simulation time: 0 hr 1 min 3 sec) 
Heartbeat CPU 0 instructions: 50000002 cycles: 21730888 heartbeat IPC: 2.299 cumulative IPC: 2.30087 (Simulation time: 0 hr 1 min 19 sec) 

Warmup complete CPU 0 instructions: 50000002 cycles: 21730888 (Simulation time: 0 hr 1 min 19 sec) 

Heartbeat CPU 0 instructions: 60000003 cycles: 30397680 heartbeat IPC: 1.15383 cumulative IPC: 1.15383 (Simulation time: 0 hr 1 min 36 sec) 
Heartbeat CPU 0 instructions: 70000000 cycles: 39037954 heartbeat IPC: 1.15737 cumulative IPC: 1.1556 (Simulation time: 0 hr 1 min 53 sec) 
Heartbeat CPU 0 instructions: 80000000 cycles: 47624989 heartbeat IPC: 1.16455 cumulative IPC: 1.15856 (Simulation time: 0 hr 2 min 10 sec) 
Heartbeat CPU 0 instructions: 90000000 cycles: 56267926 heartbeat IPC: 1.15701 cumulative IPC: 1.15818 (Simulation time: 0 hr 2 min 27 sec) 
Heartbeat CPU 0 instructions: 100000001 cycles: 64878162 heartbeat IPC: 1.16141 cumulative IPC: 1.15882 (Simulation time: 0 hr 2 min 44 sec) 
Finished CPU 0 instructions: 50000000 cycles: 43147281 cumulative IPC: 1.15882 (Simulation time: 0 hr 2 min 44 sec) 

ChampSim completed all CPUs

Region of Interest Statistics

CPU 0 cumulative IPC: 1.15882 instructions: 50000000 cycles: 43147281
L1D TOTAL     ACCESS:   15293470  HIT:   15291922  MISS:       1548
L1D LOAD      ACCESS:    6687011  HIT:    6686722  MISS:        289
L1D RFO       ACCESS:    1925601  HIT:    1924846  MISS:        755
L1D PREFETCH  ACCESS:    6680858  HIT:    6680354  MISS:        504
L1D WRITEBACK ACCESS:          0  HIT:          0  MISS:          0
L1D PREFETCH  REQUESTED:    6687093  ISSUED:    6682291  USEFUL:        422  USELESS:         79
L1D AVERAGE MISS LATENCY: 131.004 cycles
L1I TOTAL     ACCESS:   10572956  HIT:   10572575  MISS:        381
L1I LOAD      ACCESS:   10572394  HIT:   10572374  MISS:         20
L1I RFO       ACCESS:          0  HIT:          0  MISS:          0
L1I PREFETCH  ACCESS:        562  HIT:        201  MISS:        361
L1I WRITEBACK ACCESS:          0  HIT:          0  MISS:          0
L1I PREFETCH  REQUESTED:        596  ISSUED:        596  USEFUL:        361  USELESS:          0
L1I AVERAGE MISS LATENCY: 16.4698 cycles
L2C TOTAL     ACCESS:       3441  HIT:       1976  MISS:       1465
L2C LOAD      ACCESS:        207  HIT:         50  MISS:        157
L2C RFO       ACCESS:        755  HIT:         27  MISS:        728
L2C PREFETCH  ACCESS:       1431  HIT:        851  MISS:        580
L2C WRITEBACK ACCESS:       1048  HIT:       1048  MISS:          0
L2C PREFETCH  REQUESTED:       3098  ISSUED:       3098  USEFUL:         27  USELESS:          0
L2C AVERAGE MISS LATENCY: 135.349 cycles
LLC TOTAL     ACCESS:       3186  HIT:       1588  MISS:       1598
LLC LOAD      ACCESS:        155  HIT:         44  MISS:        111
LLC RFO       ACCESS:        728  HIT:         31  MISS:        697
LLC PREFETCH  ACCESS:       2303  HIT:       1513  MISS:        790
LLC WRITEBACK ACCESS:          0  HIT:          0  MISS:          0
LLC PREFETCH  REQUESTED:          0  ISSUED:          0  USEFUL:         75  USELESS:          0
LLC AVERAGE MISS LATENCY: 155.022 cycles
Major fault: 0 Minor fault: 197
CPU 0 L1D next line prefetcher final stats

DRAM Statistics
 CHANNEL 0
 RQ ROW_BUFFER_HIT:        495  ROW_BUFFER_MISS:       1103
 DBUS_CONGESTED:        623
 WQ ROW_BUFFER_HIT:          0  ROW_BUFFER_MISS:          0  FULL:          0

 AVG_CONGESTED_CYCLE: 6

CPU 0 Branch Prediction Accuracy: 99.6866% MPKI: 0.41812 Average ROB Occupancy at Mispredict: 263.287

Branch types
NOT_BRANCH: 43328386 86.6568%
BRANCH_DIRECT_JUMP: 484649 0.969298%
BRANCH_INDIRECT: 0 0%
BRANCH_CONDITIONAL: 5043854 10.0877%
BRANCH_DIRECT_CALL: 571556 1.14311%
BRANCH_INDIRECT_CALL: 0 0%
BRANCH_RETURN: 571556 1.14311%
BRANCH_OTHER: 0 0%

