Initialize SIGNATURE TABLE
ST_SET: 1
ST_WAY: 256
ST_TAG_BIT: 16
ST_TAG_MASK: ffff

Initialize PATTERN TABLE
PT_SET: 512
PT_WAY: 4
SIG_DELTA_BIT: 7
C_SIG_BIT: 4
C_DELTA_BIT: 4

Initialize PREFETCH FILTER
FILTER_SET: 1024

*** ChampSim Multicore Out-of-Order Simulator ***

Warmup Instructions: 50000000
Simulation Instructions: 50000000
Number of CPUs: 1
LLC sets: 2048
LLC ways: 16
Off-chip DRAM Size: 4096 MB Channels: 1 Width: 64-bit Data Rate: 3200 MT/s

CPU 0 runs /home/ykhodke/ChampSim/dpc3_traces/623.xalancbmk_s-700B.champsimtrace.xz
CPU 0 L1D next line prefetcher
Heartbeat CPU 0 instructions: 10000002 cycles: 5014309 heartbeat IPC: 1.99429 cumulative IPC: 1.99429 (Simulation time: 0 hr 0 min 18 sec) 
Heartbeat CPU 0 instructions: 20000001 cycles: 9412019 heartbeat IPC: 2.27391 cumulative IPC: 2.12494 (Simulation time: 0 hr 0 min 32 sec) 
Heartbeat CPU 0 instructions: 30000000 cycles: 14462658 heartbeat IPC: 1.97995 cumulative IPC: 2.07431 (Simulation time: 0 hr 0 min 51 sec) 
Heartbeat CPU 0 instructions: 40000002 cycles: 19694041 heartbeat IPC: 1.91154 cumulative IPC: 2.03107 (Simulation time: 0 hr 1 min 11 sec) 
Heartbeat CPU 0 instructions: 50000002 cycles: 24830900 heartbeat IPC: 1.94671 cumulative IPC: 2.01362 (Simulation time: 0 hr 1 min 30 sec) 

Warmup complete CPU 0 instructions: 50000002 cycles: 24830900 (Simulation time: 0 hr 1 min 30 sec) 

Heartbeat CPU 0 instructions: 60000003 cycles: 36205649 heartbeat IPC: 0.87914 cumulative IPC: 0.87914 (Simulation time: 0 hr 1 min 46 sec) 
Heartbeat CPU 0 instructions: 70000002 cycles: 50756455 heartbeat IPC: 0.687247 cumulative IPC: 0.77144 (Simulation time: 0 hr 2 min 2 sec) 
Heartbeat CPU 0 instructions: 80000000 cycles: 70215389 heartbeat IPC: 0.513903 cumulative IPC: 0.661019 (Simulation time: 0 hr 2 min 26 sec) 
Heartbeat CPU 0 instructions: 90000000 cycles: 86823523 heartbeat IPC: 0.602115 cumulative IPC: 0.645238 (Simulation time: 0 hr 2 min 49 sec) 
Heartbeat CPU 0 instructions: 100000001 cycles: 105779246 heartbeat IPC: 0.527545 cumulative IPC: 0.617678 (Simulation time: 0 hr 3 min 14 sec) 
Finished CPU 0 instructions: 50000001 cycles: 80948348 cumulative IPC: 0.617678 (Simulation time: 0 hr 3 min 14 sec) 

ChampSim completed all CPUs

Region of Interest Statistics

CPU 0 cumulative IPC: 0.617678 instructions: 50000001 cycles: 80948348
L1D TOTAL     ACCESS:   18922013  HIT:   14758931  MISS:    4163082
L1D LOAD      ACCESS:    8319910  HIT:    5945838  MISS:    2374072
L1D RFO       ACCESS:    3132478  HIT:    3100653  MISS:      31825
L1D PREFETCH  ACCESS:    7469625  HIT:    5712440  MISS:    1757185
L1D WRITEBACK ACCESS:          0  HIT:          0  MISS:          0
L1D PREFETCH  REQUESTED:    8403040  ISSUED:    8235648  USEFUL:     395427  USELESS:    1361647
L1D AVERAGE MISS LATENCY: 21.0809 cycles
L1I TOTAL     ACCESS:   13344371  HIT:   13070729  MISS:     273642
L1I LOAD      ACCESS:   12985904  HIT:   12974481  MISS:      11423
L1I RFO       ACCESS:          0  HIT:          0  MISS:          0
L1I PREFETCH  ACCESS:     358467  HIT:      96248  MISS:     262219
L1I WRITEBACK ACCESS:          0  HIT:          0  MISS:          0
L1I PREFETCH  REQUESTED:     374194  ISSUED:     374194  USEFUL:     187292  USELESS:      74914
L1I AVERAGE MISS LATENCY: 16.0174 cycles
L2C TOTAL     ACCESS:    6614951  HIT:    6157562  MISS:     457389
L2C LOAD      ACCESS:    2273041  HIT:    2030895  MISS:     242146
L2C RFO       ACCESS:      31582  HIT:       8903  MISS:      22679
L2C PREFETCH  ACCESS:    4224612  HIT:    4032048  MISS:     192564
L2C WRITEBACK ACCESS:      85716  HIT:      85716  MISS:          0
L2C PREFETCH  REQUESTED:    6651808  ISSUED:    6650971  USEFUL:       8423  USELESS:     184386
L2C AVERAGE MISS LATENCY: 47.6391 cycles
LLC TOTAL     ACCESS:    2422120  HIT:    2339935  MISS:      82185
LLC LOAD      ACCESS:     241870  HIT:     227588  MISS:      14282
LLC RFO       ACCESS:      22678  HIT:       9591  MISS:      13087
LLC PREFETCH  ACCESS:    2107542  HIT:    2053894  MISS:      53648
LLC WRITEBACK ACCESS:      50030  HIT:      48862  MISS:       1168
LLC PREFETCH  REQUESTED:          0  ISSUED:          0  USEFUL:       7175  USELESS:      40095
LLC AVERAGE MISS LATENCY: 171.774 cycles
Major fault: 0 Minor fault: 3570
CPU 0 L1D next line prefetcher final stats

DRAM Statistics
 CHANNEL 0
 RQ ROW_BUFFER_HIT:      13726  ROW_BUFFER_MISS:      67289
 DBUS_CONGESTED:      39482
 WQ ROW_BUFFER_HIT:       5502  ROW_BUFFER_MISS:      32754  FULL:          0

 AVG_CONGESTED_CYCLE: 5

CPU 0 Branch Prediction Accuracy: 99.7227% MPKI: 0.78238 Average ROB Occupancy at Mispredict: 146.226

Branch types
NOT_BRANCH: 35891713 71.7834%
BRANCH_DIRECT_JUMP: 408140 0.81628%
BRANCH_INDIRECT: 152644 0.305288%
BRANCH_CONDITIONAL: 12052504 24.105%
BRANCH_DIRECT_CALL: 454801 0.909602%
BRANCH_INDIRECT_CALL: 292700 0.5854%
BRANCH_RETURN: 747496 1.49499%
BRANCH_OTHER: 0 0%

