Initialize SIGNATURE TABLE
ST_SET: 1
ST_WAY: 256
ST_TAG_BIT: 16
ST_TAG_MASK: ffff

Initialize PATTERN TABLE
PT_SET: 512
PT_WAY: 4
SIG_DELTA_BIT: 7
C_SIG_BIT: 4
C_DELTA_BIT: 4

Initialize PREFETCH FILTER
FILTER_SET: 1024

*** ChampSim Multicore Out-of-Order Simulator ***

Warmup Instructions: 50000000
Simulation Instructions: 50000000
Number of CPUs: 1
LLC sets: 2048
LLC ways: 16
Off-chip DRAM Size: 4096 MB Channels: 1 Width: 64-bit Data Rate: 3200 MT/s

CPU 0 runs /home/ykhodke/ChampSim/dpc3_traces/631.deepsjeng_s-928B.champsimtrace.xz
CPU 0 L1D next line prefetcher
Heartbeat CPU 0 instructions: 10000000 cycles: 3950172 heartbeat IPC: 2.53154 cumulative IPC: 2.53154 (Simulation time: 0 hr 0 min 18 sec) 
Heartbeat CPU 0 instructions: 20000000 cycles: 8025241 heartbeat IPC: 2.45395 cumulative IPC: 2.49214 (Simulation time: 0 hr 0 min 37 sec) 
Heartbeat CPU 0 instructions: 30000000 cycles: 11975536 heartbeat IPC: 2.53146 cumulative IPC: 2.50511 (Simulation time: 0 hr 0 min 55 sec) 
Heartbeat CPU 0 instructions: 40000001 cycles: 15927806 heartbeat IPC: 2.53019 cumulative IPC: 2.51133 (Simulation time: 0 hr 1 min 12 sec) 
Heartbeat CPU 0 instructions: 50000001 cycles: 19877840 heartbeat IPC: 2.53162 cumulative IPC: 2.51536 (Simulation time: 0 hr 1 min 30 sec) 

Warmup complete CPU 0 instructions: 50000001 cycles: 19877840 (Simulation time: 0 hr 1 min 30 sec) 

Heartbeat CPU 0 instructions: 60000001 cycles: 28269135 heartbeat IPC: 1.19171 cumulative IPC: 1.19171 (Simulation time: 0 hr 1 min 46 sec) 
Heartbeat CPU 0 instructions: 70000001 cycles: 36493534 heartbeat IPC: 1.21589 cumulative IPC: 1.20368 (Simulation time: 0 hr 2 min 3 sec) 
Heartbeat CPU 0 instructions: 80000002 cycles: 44854604 heartbeat IPC: 1.19602 cumulative IPC: 1.20112 (Simulation time: 0 hr 2 min 20 sec) 
Heartbeat CPU 0 instructions: 90000001 cycles: 53118230 heartbeat IPC: 1.21012 cumulative IPC: 1.20336 (Simulation time: 0 hr 2 min 37 sec) 
Heartbeat CPU 0 instructions: 100000003 cycles: 61616299 heartbeat IPC: 1.17674 cumulative IPC: 1.19794 (Simulation time: 0 hr 2 min 53 sec) 
Finished CPU 0 instructions: 50000002 cycles: 41738459 cumulative IPC: 1.19794 (Simulation time: 0 hr 2 min 53 sec) 

ChampSim completed all CPUs

Region of Interest Statistics

CPU 0 cumulative IPC: 1.19794 instructions: 50000002 cycles: 41738459
L1D TOTAL     ACCESS:   21891379  HIT:   21831890  MISS:      59489
L1D LOAD      ACCESS:    8239539  HIT:    8216012  MISS:      23527
L1D RFO       ACCESS:    5544171  HIT:    5532464  MISS:      11707
L1D PREFETCH  ACCESS:    8107669  HIT:    8083414  MISS:      24255
L1D WRITEBACK ACCESS:          0  HIT:          0  MISS:          0
L1D PREFETCH  REQUESTED:    8244062  ISSUED:    8149954  USEFUL:       7103  USELESS:      17173
L1D AVERAGE MISS LATENCY: 70.9834 cycles
L1I TOTAL     ACCESS:    8779945  HIT:    8652916  MISS:     127029
L1I LOAD      ACCESS:    8589682  HIT:    8575524  MISS:      14158
L1I RFO       ACCESS:          0  HIT:          0  MISS:          0
L1I PREFETCH  ACCESS:     190263  HIT:      77392  MISS:     112871
L1I WRITEBACK ACCESS:          0  HIT:          0  MISS:          0
L1I PREFETCH  REQUESTED:     205216  ISSUED:     205216  USEFUL:      88871  USELESS:      23994
L1I AVERAGE MISS LATENCY: 14.1746 cycles
L2C TOTAL     ACCESS:     254417  HIT:     230423  MISS:      23994
L2C LOAD      ACCESS:      27621  HIT:      14330  MISS:      13291
L2C RFO       ACCESS:      11676  HIT:      11392  MISS:        284
L2C PREFETCH  ACCESS:     190271  HIT:     179889  MISS:      10382
L2C WRITEBACK ACCESS:      24849  HIT:      24812  MISS:         37
L2C PREFETCH  REQUESTED:      73653  ISSUED:      73653  USEFUL:        132  USELESS:      11307
L2C AVERAGE MISS LATENCY: 141.547 cycles
LLC TOTAL     ACCESS:      53434  HIT:      19731  MISS:      33703
LLC LOAD      ACCESS:      13290  HIT:        382  MISS:      12908
LLC RFO       ACCESS:        284  HIT:        202  MISS:         82
LLC PREFETCH  ACCESS:      30039  HIT:       9449  MISS:      20590
LLC WRITEBACK ACCESS:       9821  HIT:       9698  MISS:        123
LLC PREFETCH  REQUESTED:          0  ISSUED:          0  USEFUL:        197  USELESS:      21438
LLC AVERAGE MISS LATENCY: 123.006 cycles
Major fault: 0 Minor fault: 17348
CPU 0 L1D next line prefetcher final stats

DRAM Statistics
 CHANNEL 0
 RQ ROW_BUFFER_HIT:      18960  ROW_BUFFER_MISS:      14620
 DBUS_CONGESTED:      13053
 WQ ROW_BUFFER_HIT:        196  ROW_BUFFER_MISS:       9327  FULL:          0

 AVG_CONGESTED_CYCLE: 4

CPU 0 Branch Prediction Accuracy: 97.157% MPKI: 4.1846 Average ROB Occupancy at Mispredict: 87.3012

Branch types
NOT_BRANCH: 42640301 85.2806%
BRANCH_DIRECT_JUMP: 428022 0.856044%
BRANCH_INDIRECT: 37836 0.075672%
BRANCH_CONDITIONAL: 4816570 9.63314%
BRANCH_DIRECT_CALL: 1038476 2.07695%
BRANCH_INDIRECT_CALL: 0 0%
BRANCH_RETURN: 1038476 2.07695%
BRANCH_OTHER: 0 0%

