Initialize SIGNATURE TABLE
ST_SET: 1
ST_WAY: 256
ST_TAG_BIT: 16
ST_TAG_MASK: ffff

Initialize PATTERN TABLE
PT_SET: 512
PT_WAY: 4
SIG_DELTA_BIT: 7
C_SIG_BIT: 4
C_DELTA_BIT: 4

Initialize PREFETCH FILTER
FILTER_SET: 1024

*** ChampSim Multicore Out-of-Order Simulator ***

Warmup Instructions: 50000000
Simulation Instructions: 50000000
Number of CPUs: 1
LLC sets: 2048
LLC ways: 16
Off-chip DRAM Size: 4096 MB Channels: 1 Width: 64-bit Data Rate: 3200 MT/s

CPU 0 runs /home/ykhodke/ChampSim/dpc3_traces/657.xz_s-3167B.champsimtrace.xz
CPU 0 L1D next line prefetcher
Heartbeat CPU 0 instructions: 10000000 cycles: 3240354 heartbeat IPC: 3.08608 cumulative IPC: 3.08608 (Simulation time: 0 hr 0 min 13 sec) 
Heartbeat CPU 0 instructions: 20000003 cycles: 6520161 heartbeat IPC: 3.04896 cumulative IPC: 3.06741 (Simulation time: 0 hr 0 min 26 sec) 
Heartbeat CPU 0 instructions: 30000001 cycles: 9792154 heartbeat IPC: 3.05624 cumulative IPC: 3.06368 (Simulation time: 0 hr 0 min 40 sec) 
Heartbeat CPU 0 instructions: 40000000 cycles: 13042056 heartbeat IPC: 3.07702 cumulative IPC: 3.067 (Simulation time: 0 hr 0 min 53 sec) 
Heartbeat CPU 0 instructions: 50000001 cycles: 16293745 heartbeat IPC: 3.07533 cumulative IPC: 3.06866 (Simulation time: 0 hr 1 min 6 sec) 

Warmup complete CPU 0 instructions: 50000001 cycles: 16293745 (Simulation time: 0 hr 1 min 6 sec) 

Heartbeat CPU 0 instructions: 60000001 cycles: 25505270 heartbeat IPC: 1.0856 cumulative IPC: 1.0856 (Simulation time: 0 hr 1 min 15 sec) 
Heartbeat CPU 0 instructions: 70000001 cycles: 34165532 heartbeat IPC: 1.1547 cumulative IPC: 1.11908 (Simulation time: 0 hr 1 min 24 sec) 
Heartbeat CPU 0 instructions: 80000002 cycles: 43072366 heartbeat IPC: 1.12273 cumulative IPC: 1.1203 (Simulation time: 0 hr 1 min 34 sec) 
Heartbeat CPU 0 instructions: 90000001 cycles: 51030607 heartbeat IPC: 1.25656 cumulative IPC: 1.15151 (Simulation time: 0 hr 1 min 43 sec) 
Heartbeat CPU 0 instructions: 100000001 cycles: 59779048 heartbeat IPC: 1.14306 cumulative IPC: 1.14981 (Simulation time: 0 hr 1 min 52 sec) 
Finished CPU 0 instructions: 50000000 cycles: 43485303 cumulative IPC: 1.14981 (Simulation time: 0 hr 1 min 52 sec) 

ChampSim completed all CPUs

Region of Interest Statistics

CPU 0 cumulative IPC: 1.14981 instructions: 50000000 cycles: 43485303
L1D TOTAL     ACCESS:   18387244  HIT:   17934074  MISS:     453170
L1D LOAD      ACCESS:    7571896  HIT:    7388289  MISS:     183607
L1D RFO       ACCESS:    3349846  HIT:    3284715  MISS:      65131
L1D PREFETCH  ACCESS:    7465502  HIT:    7261070  MISS:     204432
L1D WRITEBACK ACCESS:          0  HIT:          0  MISS:          0
L1D PREFETCH  REQUESTED:    7591823  ISSUED:    7518219  USEFUL:      37513  USELESS:     166903
L1D AVERAGE MISS LATENCY: 56.4628 cycles
L1I TOTAL     ACCESS:    8299028  HIT:    8298845  MISS:        183
L1I LOAD      ACCESS:    8298844  HIT:    8298803  MISS:         41
L1I RFO       ACCESS:          0  HIT:          0  MISS:          0
L1I PREFETCH  ACCESS:        184  HIT:         42  MISS:        142
L1I WRITEBACK ACCESS:          0  HIT:          0  MISS:          0
L1I PREFETCH  REQUESTED:        225  ISSUED:        225  USEFUL:        142  USELESS:          0
L1I AVERAGE MISS LATENCY: 46.2678 cycles
L2C TOTAL     ACCESS:     758554  HIT:     621292  MISS:     137262
L2C LOAD      ACCESS:     182552  HIT:     126883  MISS:      55669
L2C RFO       ACCESS:      64968  HIT:      47759  MISS:      17209
L2C PREFETCH  ACCESS:     303975  HIT:     239780  MISS:      64195
L2C WRITEBACK ACCESS:     207059  HIT:     206870  MISS:        189
L2C PREFETCH  REQUESTED:     345127  ISSUED:     345127  USEFUL:       5224  USELESS:      59078
L2C AVERAGE MISS LATENCY: 131.745 cycles
LLC TOTAL     ACCESS:     277179  HIT:     174200  MISS:     102979
LLC LOAD      ACCESS:      55669  HIT:      24924  MISS:      30745
LLC RFO       ACCESS:      17209  HIT:       2358  MISS:      14851
LLC PREFETCH  ACCESS:     143982  HIT:      87781  MISS:      56201
LLC WRITEBACK ACCESS:      60319  HIT:      59137  MISS:       1182
LLC PREFETCH  REQUESTED:          0  ISSUED:          0  USEFUL:       4783  USELESS:      51276
LLC AVERAGE MISS LATENCY: 177.966 cycles
Major fault: 0 Minor fault: 6977
CPU 0 L1D next line prefetcher final stats

DRAM Statistics
 CHANNEL 0
 RQ ROW_BUFFER_HIT:       5120  ROW_BUFFER_MISS:      96677
 DBUS_CONGESTED:      47859
 WQ ROW_BUFFER_HIT:       3492  ROW_BUFFER_MISS:      39112  FULL:          0

 AVG_CONGESTED_CYCLE: 4

CPU 0 Branch Prediction Accuracy: 96.6222% MPKI: 5.02184 Average ROB Occupancy at Mispredict: 27.989

Branch types
NOT_BRANCH: 42566067 85.1321%
BRANCH_DIRECT_JUMP: 361705 0.72341%
BRANCH_INDIRECT: 89401 0.178802%
BRANCH_CONDITIONAL: 6903804 13.8076%
BRANCH_DIRECT_CALL: 26281 0.052562%
BRANCH_INDIRECT_CALL: 13065 0.02613%
BRANCH_RETURN: 39345 0.07869%
BRANCH_OTHER: 0 0%

