Initialize SIGNATURE TABLE
ST_SET: 1
ST_WAY: 256
ST_TAG_BIT: 16
ST_TAG_MASK: ffff

Initialize PATTERN TABLE
PT_SET: 512
PT_WAY: 4
SIG_DELTA_BIT: 7
C_SIG_BIT: 4
C_DELTA_BIT: 4

Initialize PREFETCH FILTER
FILTER_SET: 1024

*** ChampSim Multicore Out-of-Order Simulator ***

Warmup Instructions: 50000000
Simulation Instructions: 50000000
Number of CPUs: 1
LLC sets: 2048
LLC ways: 16
Off-chip DRAM Size: 4096 MB Channels: 1 Width: 64-bit Data Rate: 3200 MT/s

CPU 0 runs /home/ykhodke/ChampSim/dpc3_traces/server_031.champsimtrace.xz
CPU 0 L1D next line prefetcher
Heartbeat CPU 0 instructions: 10000003 cycles: 3524897 heartbeat IPC: 2.83696 cumulative IPC: 2.83696 (Simulation time: 0 hr 0 min 21 sec) 
Heartbeat CPU 0 instructions: 20000002 cycles: 7047478 heartbeat IPC: 2.83883 cumulative IPC: 2.83789 (Simulation time: 0 hr 0 min 42 sec) 
Heartbeat CPU 0 instructions: 30000002 cycles: 10571200 heartbeat IPC: 2.83791 cumulative IPC: 2.8379 (Simulation time: 0 hr 1 min 3 sec) 
Heartbeat CPU 0 instructions: 40000003 cycles: 14090528 heartbeat IPC: 2.84145 cumulative IPC: 2.83879 (Simulation time: 0 hr 1 min 24 sec) 
Heartbeat CPU 0 instructions: 50000001 cycles: 17611593 heartbeat IPC: 2.84005 cumulative IPC: 2.83904 (Simulation time: 0 hr 1 min 45 sec) 

Warmup complete CPU 0 instructions: 50000001 cycles: 17611593 (Simulation time: 0 hr 1 min 45 sec) 

Heartbeat CPU 0 instructions: 60000001 cycles: 25105002 heartbeat IPC: 1.33451 cumulative IPC: 1.33451 (Simulation time: 0 hr 2 min 8 sec) 
Heartbeat CPU 0 instructions: 70000002 cycles: 32648922 heartbeat IPC: 1.32557 cumulative IPC: 1.33002 (Simulation time: 0 hr 2 min 30 sec) 
*** Reached end of trace for Core: 0 Repeating trace: /home/ykhodke/ChampSim/dpc3_traces/server_031.champsimtrace.xz
Heartbeat CPU 0 instructions: 80000000 cycles: 40063917 heartbeat IPC: 1.34862 cumulative IPC: 1.33616 (Simulation time: 0 hr 2 min 53 sec) 
Heartbeat CPU 0 instructions: 90000003 cycles: 47493246 heartbeat IPC: 1.34602 cumulative IPC: 1.33861 (Simulation time: 0 hr 3 min 17 sec) 
Heartbeat CPU 0 instructions: 100000000 cycles: 54884026 heartbeat IPC: 1.35304 cumulative IPC: 1.34147 (Simulation time: 0 hr 3 min 40 sec) 
Finished CPU 0 instructions: 50000000 cycles: 37272435 cumulative IPC: 1.34147 (Simulation time: 0 hr 3 min 40 sec) 

ChampSim completed all CPUs

Region of Interest Statistics

CPU 0 cumulative IPC: 1.34147 instructions: 50000000 cycles: 37272435
L1D TOTAL     ACCESS:   19558468  HIT:   17654001  MISS:    1904467
L1D LOAD      ACCESS:    6786373  HIT:    5913256  MISS:     873117
L1D RFO       ACCESS:    6325869  HIT:    6034328  MISS:     291541
L1D PREFETCH  ACCESS:    6446226  HIT:    5706417  MISS:     739809
L1D WRITEBACK ACCESS:          0  HIT:          0  MISS:          0
L1D PREFETCH  REQUESTED:    6846598  ISSUED:    6736251  USEFUL:     173891  USELESS:     565922
L1D AVERAGE MISS LATENCY: 22.1035 cycles
L1I TOTAL     ACCESS:   14150751  HIT:   10183479  MISS:    3967272
L1I LOAD      ACCESS:    9619914  HIT:    9303693  MISS:     316221
L1I RFO       ACCESS:          0  HIT:          0  MISS:          0
L1I PREFETCH  ACCESS:    4530837  HIT:     879786  MISS:    3651051
L1I WRITEBACK ACCESS:          0  HIT:          0  MISS:          0
L1I PREFETCH  REQUESTED:    5164173  ISSUED:    5164173  USEFUL:    2784671  USELESS:     866370
L1I AVERAGE MISS LATENCY: 15.8987 cycles
L2C TOTAL     ACCESS:    8093362  HIT:    7527134  MISS:     566228
L2C LOAD      ACCESS:     912345  HIT:     793814  MISS:     118531
L2C RFO       ACCESS:     289621  HIT:     249455  MISS:      40166
L2C PREFETCH  ACCESS:    6274471  HIT:    5868048  MISS:     406423
L2C WRITEBACK ACCESS:     616925  HIT:     615817  MISS:       1108
L2C PREFETCH  REQUESTED:    4737226  ISSUED:    4729399  USEFUL:       6279  USELESS:     399532
L2C AVERAGE MISS LATENCY: 44.5657 cycles
LLC TOTAL     ACCESS:    1930855  HIT:    1859463  MISS:      71392
LLC LOAD      ACCESS:     118493  HIT:     100072  MISS:      18421
LLC RFO       ACCESS:      40162  HIT:      35987  MISS:       4175
LLC PREFETCH  ACCESS:    1698212  HIT:    1649891  MISS:      48321
LLC WRITEBACK ACCESS:      73988  HIT:      73513  MISS:        475
LLC PREFETCH  REQUESTED:          0  ISSUED:          0  USEFUL:       2263  USELESS:      46085
LLC AVERAGE MISS LATENCY: 155.816 cycles
Major fault: 0 Minor fault: 6041
CPU 0 L1D next line prefetcher final stats

DRAM Statistics
 CHANNEL 0
 RQ ROW_BUFFER_HIT:      19748  ROW_BUFFER_MISS:      51162
 DBUS_CONGESTED:      27305
 WQ ROW_BUFFER_HIT:        726  ROW_BUFFER_MISS:       5124  FULL:          0

 AVG_CONGESTED_CYCLE: 4

CPU 0 Branch Prediction Accuracy: 99.6894% MPKI: 0.58048 Average ROB Occupancy at Mispredict: 140.761

Branch types
NOT_BRANCH: 40655639 81.3113%
BRANCH_DIRECT_JUMP: 546483 1.09297%
BRANCH_INDIRECT: 172433 0.344866%
BRANCH_CONDITIONAL: 6207588 12.4152%
BRANCH_DIRECT_CALL: 1018497 2.03699%
BRANCH_INDIRECT_CALL: 190373 0.380746%
BRANCH_RETURN: 1208855 2.41771%
BRANCH_OTHER: 0 0%

