Initialize SIGNATURE TABLE
ST_SET: 1
ST_WAY: 256
ST_TAG_BIT: 16
ST_TAG_MASK: ffff

Initialize PATTERN TABLE
PT_SET: 512
PT_WAY: 4
SIG_DELTA_BIT: 7
C_SIG_BIT: 4
C_DELTA_BIT: 4

Initialize PREFETCH FILTER
FILTER_SET: 1024

*** ChampSim Multicore Out-of-Order Simulator ***

Warmup Instructions: 50000000
Simulation Instructions: 50000000
Number of CPUs: 1
LLC sets: 2048
LLC ways: 16
Off-chip DRAM Size: 4096 MB Channels: 1 Width: 64-bit Data Rate: 3200 MT/s

CPU 0 runs /home/ykhodke/ChampSim/dpc3_traces/server_002.champsimtrace.xz
CPU 0 L1D next line prefetcher
Heartbeat CPU 0 instructions: 10000000 cycles: 3581246 heartbeat IPC: 2.79232 cumulative IPC: 2.79232 (Simulation time: 0 hr 0 min 19 sec) 
Heartbeat CPU 0 instructions: 20000002 cycles: 7170368 heartbeat IPC: 2.7862 cumulative IPC: 2.78926 (Simulation time: 0 hr 0 min 41 sec) 
Heartbeat CPU 0 instructions: 30000000 cycles: 10711168 heartbeat IPC: 2.82422 cumulative IPC: 2.80082 (Simulation time: 0 hr 1 min 4 sec) 
Heartbeat CPU 0 instructions: 40000000 cycles: 14261413 heartbeat IPC: 2.81671 cumulative IPC: 2.80477 (Simulation time: 0 hr 1 min 26 sec) 
Heartbeat CPU 0 instructions: 50000001 cycles: 17809184 heartbeat IPC: 2.81867 cumulative IPC: 2.80754 (Simulation time: 0 hr 1 min 49 sec) 

Warmup complete CPU 0 instructions: 50000001 cycles: 17809184 (Simulation time: 0 hr 1 min 49 sec) 

Heartbeat CPU 0 instructions: 60000000 cycles: 24254311 heartbeat IPC: 1.55156 cumulative IPC: 1.55156 (Simulation time: 0 hr 2 min 12 sec) 
Heartbeat CPU 0 instructions: 70000003 cycles: 30688629 heartbeat IPC: 1.55417 cumulative IPC: 1.55286 (Simulation time: 0 hr 2 min 35 sec) 
Heartbeat CPU 0 instructions: 80000003 cycles: 37125268 heartbeat IPC: 1.55361 cumulative IPC: 1.55311 (Simulation time: 0 hr 2 min 58 sec) 
Heartbeat CPU 0 instructions: 90000002 cycles: 43559107 heartbeat IPC: 1.55428 cumulative IPC: 1.5534 (Simulation time: 0 hr 3 min 21 sec) 
Heartbeat CPU 0 instructions: 100000003 cycles: 49993066 heartbeat IPC: 1.55425 cumulative IPC: 1.55357 (Simulation time: 0 hr 3 min 45 sec) 
Finished CPU 0 instructions: 50000002 cycles: 32183882 cumulative IPC: 1.55357 (Simulation time: 0 hr 3 min 45 sec) 

ChampSim completed all CPUs

Region of Interest Statistics

CPU 0 cumulative IPC: 1.55357 instructions: 50000002 cycles: 32183882
L1D TOTAL     ACCESS:   21524217  HIT:   21523408  MISS:        809
L1D LOAD      ACCESS:    6601707  HIT:    6601330  MISS:        377
L1D RFO       ACCESS:    8433152  HIT:    8433039  MISS:        113
L1D PREFETCH  ACCESS:    6489358  HIT:    6489039  MISS:        319
L1D WRITEBACK ACCESS:          0  HIT:          0  MISS:          0
L1D PREFETCH  REQUESTED:    6601760  ISSUED:    6496742  USEFUL:         90  USELESS:        230
L1D AVERAGE MISS LATENCY: 51.4536 cycles
L1I TOTAL     ACCESS:   11150984  HIT:   10138352  MISS:    1012632
L1I LOAD      ACCESS:    9835929  HIT:    9749837  MISS:      86092
L1I RFO       ACCESS:          0  HIT:          0  MISS:          0
L1I PREFETCH  ACCESS:    1315055  HIT:     388515  MISS:     926540
L1I WRITEBACK ACCESS:          0  HIT:          0  MISS:          0
L1I PREFETCH  REQUESTED:    1569531  ISSUED:    1569531  USEFUL:     861914  USELESS:      64615
L1I AVERAGE MISS LATENCY: 13.2153 cycles
L2C TOTAL     ACCESS:    1444065  HIT:    1443743  MISS:        322
L2C LOAD      ACCESS:      14078  HIT:      14002  MISS:         76
L2C RFO       ACCESS:        112  HIT:        110  MISS:          2
L2C PREFETCH  ACCESS:    1429539  HIT:    1429296  MISS:        243
L2C WRITEBACK ACCESS:        336  HIT:        335  MISS:          1
L2C PREFETCH  REQUESTED:     910063  ISSUED:     909969  USEFUL:         59  USELESS:        139
L2C AVERAGE MISS LATENCY: 290.494 cycles
LLC TOTAL     ACCESS:     268827  HIT:     267905  MISS:        922
LLC LOAD      ACCESS:         76  HIT:         63  MISS:         13
LLC RFO       ACCESS:          2  HIT:          0  MISS:          2
LLC PREFETCH  ACCESS:     268645  HIT:     267740  MISS:        905
LLC WRITEBACK ACCESS:        104  HIT:        102  MISS:          2
LLC PREFETCH  REQUESTED:          0  ISSUED:          0  USEFUL:         12  USELESS:        219
LLC AVERAGE MISS LATENCY: 710.831 cycles
Major fault: 0 Minor fault: 1867
CPU 0 L1D next line prefetcher final stats

DRAM Statistics
 CHANNEL 0
 RQ ROW_BUFFER_HIT:        217  ROW_BUFFER_MISS:        703
 DBUS_CONGESTED:        710
 WQ ROW_BUFFER_HIT:        120  ROW_BUFFER_MISS:        484  FULL:          0

 AVG_CONGESTED_CYCLE: 6

CPU 0 Branch Prediction Accuracy: 99.8789% MPKI: 0.20388 Average ROB Occupancy at Mispredict: 282.026

Branch types
NOT_BRANCH: 41580695 83.1614%
BRANCH_DIRECT_JUMP: 461630 0.92326%
BRANCH_INDIRECT: 0 0%
BRANCH_CONDITIONAL: 5376437 10.7529%
BRANCH_DIRECT_CALL: 1175775 2.35155%
BRANCH_INDIRECT_CALL: 114840 0.22968%
BRANCH_RETURN: 1290625 2.58125%
BRANCH_OTHER: 0 0%

