Initialize SIGNATURE TABLE
ST_SET: 1
ST_WAY: 256
ST_TAG_BIT: 16
ST_TAG_MASK: ffff

Initialize PATTERN TABLE
PT_SET: 512
PT_WAY: 4
SIG_DELTA_BIT: 7
C_SIG_BIT: 4
C_DELTA_BIT: 4

Initialize PREFETCH FILTER
FILTER_SET: 1024

*** ChampSim Multicore Out-of-Order Simulator ***

Warmup Instructions: 50000000
Simulation Instructions: 50000000
Number of CPUs: 1
LLC sets: 2048
LLC ways: 16
Off-chip DRAM Size: 4096 MB Channels: 1 Width: 64-bit Data Rate: 3200 MT/s

CPU 0 runs /home/ykhodke/ChampSim/dpc3_traces/server_037.champsimtrace.xz
CPU 0 L1D next line prefetcher
Heartbeat CPU 0 instructions: 10000001 cycles: 3322545 heartbeat IPC: 3.00974 cumulative IPC: 3.00974 (Simulation time: 0 hr 0 min 21 sec) 
Heartbeat CPU 0 instructions: 20000002 cycles: 6641800 heartbeat IPC: 3.01272 cumulative IPC: 3.01123 (Simulation time: 0 hr 0 min 42 sec) 
Heartbeat CPU 0 instructions: 30000003 cycles: 10009129 heartbeat IPC: 2.96971 cumulative IPC: 2.99726 (Simulation time: 0 hr 1 min 3 sec) 
Heartbeat CPU 0 instructions: 40000000 cycles: 13330648 heartbeat IPC: 3.01067 cumulative IPC: 3.0006 (Simulation time: 0 hr 1 min 24 sec) 
Heartbeat CPU 0 instructions: 50000003 cycles: 16652386 heartbeat IPC: 3.01047 cumulative IPC: 3.00257 (Simulation time: 0 hr 1 min 45 sec) 

Warmup complete CPU 0 instructions: 50000003 cycles: 16652386 (Simulation time: 0 hr 1 min 45 sec) 

Heartbeat CPU 0 instructions: 60000001 cycles: 23041632 heartbeat IPC: 1.56513 cumulative IPC: 1.56513 (Simulation time: 0 hr 2 min 7 sec) 
Heartbeat CPU 0 instructions: 70000000 cycles: 29529140 heartbeat IPC: 1.54142 cumulative IPC: 1.55319 (Simulation time: 0 hr 2 min 30 sec) 
Heartbeat CPU 0 instructions: 80000000 cycles: 35912417 heartbeat IPC: 1.56659 cumulative IPC: 1.55763 (Simulation time: 0 hr 2 min 53 sec) 
Heartbeat CPU 0 instructions: 90000002 cycles: 42315961 heartbeat IPC: 1.56164 cumulative IPC: 1.55863 (Simulation time: 0 hr 3 min 16 sec) 
*** Reached end of trace for Core: 0 Repeating trace: /home/ykhodke/ChampSim/dpc3_traces/server_037.champsimtrace.xz
Heartbeat CPU 0 instructions: 100000000 cycles: 48716476 heartbeat IPC: 1.56237 cumulative IPC: 1.55938 (Simulation time: 0 hr 3 min 39 sec) 
Finished CPU 0 instructions: 50000001 cycles: 32064091 cumulative IPC: 1.55938 (Simulation time: 0 hr 3 min 39 sec) 

ChampSim completed all CPUs

Region of Interest Statistics

CPU 0 cumulative IPC: 1.55938 instructions: 50000001 cycles: 32064091
L1D TOTAL     ACCESS:   18696117  HIT:   17718142  MISS:     977975
L1D LOAD      ACCESS:    6364034  HIT:    5873038  MISS:     490996
L1D RFO       ACCESS:    6205214  HIT:    6141167  MISS:      64047
L1D PREFETCH  ACCESS:    6126869  HIT:    5703937  MISS:     422932
L1D WRITEBACK ACCESS:          0  HIT:          0  MISS:          0
L1D PREFETCH  REQUESTED:    6400217  ISSUED:    6247074  USEFUL:     117761  USELESS:     305174
L1D AVERAGE MISS LATENCY: 28.8935 cycles
L1I TOTAL     ACCESS:   14927668  HIT:   10110371  MISS:    4817297
L1I LOAD      ACCESS:    9389876  HIT:    9043139  MISS:     346737
L1I RFO       ACCESS:          0  HIT:          0  MISS:          0
L1I PREFETCH  ACCESS:    5537792  HIT:    1067232  MISS:    4470560
L1I WRITEBACK ACCESS:          0  HIT:          0  MISS:          0
L1I PREFETCH  REQUESTED:    6366535  ISSUED:    6366535  USEFUL:    3791706  USELESS:     678950
L1I AVERAGE MISS LATENCY: 13.9736 cycles
L2C TOTAL     ACCESS:    8348543  HIT:    8053130  MISS:     295413
L2C LOAD      ACCESS:     555999  HIT:     422271  MISS:     133728
L2C RFO       ACCESS:      63778  HIT:      37496  MISS:      26282
L2C PREFETCH  ACCESS:    7439320  HIT:    7304805  MISS:     134515
L2C WRITEBACK ACCESS:     289446  HIT:     288558  MISS:        888
L2C PREFETCH  REQUESTED:    5674694  ISSUED:    5655388  USEFUL:       5870  USELESS:     128497
L2C AVERAGE MISS LATENCY: 47.0314 cycles
LLC TOTAL     ACCESS:    1679112  HIT:    1622134  MISS:      56978
LLC LOAD      ACCESS:     133725  HIT:     120132  MISS:      13593
LLC RFO       ACCESS:      26282  HIT:      21174  MISS:       5108
LLC PREFETCH  ACCESS:    1386693  HIT:    1349076  MISS:      37617
LLC WRITEBACK ACCESS:     132412  HIT:     131752  MISS:        660
LLC PREFETCH  REQUESTED:          0  ISSUED:          0  USEFUL:       3176  USELESS:      33976
LLC AVERAGE MISS LATENCY: 164.449 cycles
Major fault: 0 Minor fault: 5652
CPU 0 L1D next line prefetcher final stats

DRAM Statistics
 CHANNEL 0
 RQ ROW_BUFFER_HIT:       8955  ROW_BUFFER_MISS:      47361
 DBUS_CONGESTED:      22459
 WQ ROW_BUFFER_HIT:       1409  ROW_BUFFER_MISS:      10979  FULL:          0

 AVG_CONGESTED_CYCLE: 5

CPU 0 Branch Prediction Accuracy: 99.913% MPKI: 0.15656 Average ROB Occupancy at Mispredict: 202.467

Branch types
NOT_BRANCH: 41001852 82.0037%
BRANCH_DIRECT_JUMP: 541942 1.08388%
BRANCH_INDIRECT: 59716 0.119432%
BRANCH_CONDITIONAL: 5916863 11.8337%
BRANCH_DIRECT_CALL: 1005468 2.01094%
BRANCH_INDIRECT_CALL: 234435 0.46887%
BRANCH_RETURN: 1239885 2.47977%
BRANCH_OTHER: 0 0%

