Initialize SIGNATURE TABLE
ST_SET: 1
ST_WAY: 256
ST_TAG_BIT: 16
ST_TAG_MASK: ffff

Initialize PATTERN TABLE
PT_SET: 512
PT_WAY: 4
SIG_DELTA_BIT: 7
C_SIG_BIT: 4
C_DELTA_BIT: 4

Initialize PREFETCH FILTER
FILTER_SET: 1024

*** ChampSim Multicore Out-of-Order Simulator ***

Warmup Instructions: 50000000
Simulation Instructions: 50000000
Number of CPUs: 1
LLC sets: 2048
LLC ways: 16
Off-chip DRAM Size: 4096 MB Channels: 1 Width: 64-bit Data Rate: 3200 MT/s

CPU 0 runs /home/ykhodke/ChampSim/dpc3_traces/server_011.champsimtrace.xz
CPU 0 L1D next line prefetcher
Heartbeat CPU 0 instructions: 10000002 cycles: 3205670 heartbeat IPC: 3.11947 cumulative IPC: 3.11947 (Simulation time: 0 hr 0 min 19 sec) 
Heartbeat CPU 0 instructions: 20000001 cycles: 6416099 heartbeat IPC: 3.11485 cumulative IPC: 3.11716 (Simulation time: 0 hr 0 min 38 sec) 
Heartbeat CPU 0 instructions: 30000001 cycles: 9670569 heartbeat IPC: 3.0727 cumulative IPC: 3.1022 (Simulation time: 0 hr 0 min 56 sec) 
Heartbeat CPU 0 instructions: 40000003 cycles: 12872442 heartbeat IPC: 3.12317 cumulative IPC: 3.10741 (Simulation time: 0 hr 1 min 13 sec) 
Heartbeat CPU 0 instructions: 50000000 cycles: 16081271 heartbeat IPC: 3.1164 cumulative IPC: 3.10921 (Simulation time: 0 hr 1 min 31 sec) 

Warmup complete CPU 0 instructions: 50000004 cycles: 16081272 (Simulation time: 0 hr 1 min 31 sec) 

Heartbeat CPU 0 instructions: 60000002 cycles: 23442832 heartbeat IPC: 1.35841 cumulative IPC: 1.35841 (Simulation time: 0 hr 1 min 50 sec) 
Heartbeat CPU 0 instructions: 70000000 cycles: 31326905 heartbeat IPC: 1.26838 cumulative IPC: 1.31185 (Simulation time: 0 hr 2 min 8 sec) 
Heartbeat CPU 0 instructions: 80000003 cycles: 40224835 heartbeat IPC: 1.12386 cumulative IPC: 1.24257 (Simulation time: 0 hr 2 min 27 sec) 
Heartbeat CPU 0 instructions: 90000001 cycles: 47785527 heartbeat IPC: 1.32263 cumulative IPC: 1.26166 (Simulation time: 0 hr 2 min 45 sec) 
Heartbeat CPU 0 instructions: 100000000 cycles: 55142318 heartbeat IPC: 1.35929 cumulative IPC: 1.28005 (Simulation time: 0 hr 3 min 3 sec) 
Finished CPU 0 instructions: 50000003 cycles: 39061058 cumulative IPC: 1.28005 (Simulation time: 0 hr 3 min 3 sec) 

ChampSim completed all CPUs

Region of Interest Statistics

CPU 0 cumulative IPC: 1.28005 instructions: 50000003 cycles: 39061058
L1D TOTAL     ACCESS:   18215697  HIT:   17184466  MISS:    1031231
L1D LOAD      ACCESS:    6808305  HIT:    6327658  MISS:     480647
L1D RFO       ACCESS:    4836542  HIT:    4754480  MISS:      82062
L1D PREFETCH  ACCESS:    6570850  HIT:    6102328  MISS:     468522
L1D WRITEBACK ACCESS:          0  HIT:          0  MISS:          0
L1D PREFETCH  REQUESTED:    6845638  ISSUED:    6753292  USEFUL:     138173  USELESS:     330345
L1D AVERAGE MISS LATENCY: 39.5048 cycles
L1I TOTAL     ACCESS:   10757222  HIT:    9016646  MISS:    1740576
L1I LOAD      ACCESS:    8848503  HIT:    8652644  MISS:     195859
L1I RFO       ACCESS:          0  HIT:          0  MISS:          0
L1I PREFETCH  ACCESS:    1908719  HIT:     364002  MISS:    1544717
L1I WRITEBACK ACCESS:          0  HIT:          0  MISS:          0
L1I PREFETCH  REQUESTED:    2198318  ISSUED:    2198318  USEFUL:    1094619  USELESS:     450048
L1I AVERAGE MISS LATENCY: 28.46 cycles
L2C TOTAL     ACCESS:    3642374  HIT:    2576695  MISS:    1065679
L2C LOAD      ACCESS:     554773  HIT:     305351  MISS:     249422
L2C RFO       ACCESS:      80204  HIT:      35214  MISS:      44990
L2C PREFETCH  ACCESS:    2739292  HIT:    1969033  MISS:     770259
L2C WRITEBACK ACCESS:     268105  HIT:     267097  MISS:       1008
L2C PREFETCH  REQUESTED:    2398803  ISSUED:    2396018  USEFUL:      27233  USELESS:     743040
L2C AVERAGE MISS LATENCY: 48.9207 cycles
LLC TOTAL     ACCESS:    1987634  HIT:    1829055  MISS:     158579
LLC LOAD      ACCESS:     249318  HIT:     221652  MISS:      27666
LLC RFO       ACCESS:      44983  HIT:      31917  MISS:      13066
LLC PREFETCH  ACCESS:    1545182  HIT:    1427639  MISS:     117543
LLC WRITEBACK ACCESS:     148151  HIT:     147847  MISS:        304
LLC PREFETCH  REQUESTED:          0  ISSUED:          0  USEFUL:      14902  USELESS:      99957
LLC AVERAGE MISS LATENCY: 174.509 cycles
Major fault: 0 Minor fault: 6971
CPU 0 L1D next line prefetcher final stats

DRAM Statistics
 CHANNEL 0
 RQ ROW_BUFFER_HIT:      31457  ROW_BUFFER_MISS:     126802
 DBUS_CONGESTED:      69328
 WQ ROW_BUFFER_HIT:      12391  ROW_BUFFER_MISS:      47764  FULL:          0

 AVG_CONGESTED_CYCLE: 5

CPU 0 Branch Prediction Accuracy: 97.5565% MPKI: 4.59006 Average ROB Occupancy at Mispredict: 60.2783

Branch types
NOT_BRANCH: 40607199 81.2144%
BRANCH_DIRECT_JUMP: 451601 0.903202%
BRANCH_INDIRECT: 151580 0.30316%
BRANCH_CONDITIONAL: 7041635 14.0833%
BRANCH_DIRECT_CALL: 647827 1.29565%
BRANCH_INDIRECT_CALL: 211373 0.422746%
BRANCH_RETURN: 888439 1.77688%
BRANCH_OTHER: 0 0%

