Initialize SIGNATURE TABLE
ST_SET: 1
ST_WAY: 256
ST_TAG_BIT: 16
ST_TAG_MASK: ffff

Initialize PATTERN TABLE
PT_SET: 512
PT_WAY: 4
SIG_DELTA_BIT: 7
C_SIG_BIT: 4
C_DELTA_BIT: 4

Initialize PREFETCH FILTER
FILTER_SET: 1024

*** ChampSim Multicore Out-of-Order Simulator ***

Warmup Instructions: 50000000
Simulation Instructions: 50000000
Number of CPUs: 1
LLC sets: 2048
LLC ways: 16
Off-chip DRAM Size: 4096 MB Channels: 1 Width: 64-bit Data Rate: 3200 MT/s

CPU 0 runs /home/ykhodke/ChampSim/dpc3_traces/server_004.champsimtrace.xz
CPU 0 L1D next line prefetcher
Heartbeat CPU 0 instructions: 10000002 cycles: 3229603 heartbeat IPC: 3.09636 cumulative IPC: 3.09636 (Simulation time: 0 hr 0 min 18 sec) 
Heartbeat CPU 0 instructions: 20000002 cycles: 6565031 heartbeat IPC: 2.99812 cumulative IPC: 3.04644 (Simulation time: 0 hr 0 min 37 sec) 
Heartbeat CPU 0 instructions: 30000000 cycles: 11682286 heartbeat IPC: 1.95417 cumulative IPC: 2.56799 (Simulation time: 0 hr 0 min 59 sec) 
Heartbeat CPU 0 instructions: 40000003 cycles: 15430316 heartbeat IPC: 2.66807 cumulative IPC: 2.5923 (Simulation time: 0 hr 1 min 18 sec) 
Heartbeat CPU 0 instructions: 50000003 cycles: 18658035 heartbeat IPC: 3.09816 cumulative IPC: 2.67981 (Simulation time: 0 hr 1 min 36 sec) 

Warmup complete CPU 0 instructions: 50000003 cycles: 18658035 (Simulation time: 0 hr 1 min 36 sec) 

Heartbeat CPU 0 instructions: 60000002 cycles: 27191417 heartbeat IPC: 1.17187 cumulative IPC: 1.17187 (Simulation time: 0 hr 1 min 55 sec) 
Heartbeat CPU 0 instructions: 70000000 cycles: 35144003 heartbeat IPC: 1.25745 cumulative IPC: 1.21315 (Simulation time: 0 hr 2 min 14 sec) 
Heartbeat CPU 0 instructions: 80000001 cycles: 56029598 heartbeat IPC: 0.478799 cumulative IPC: 0.802749 (Simulation time: 0 hr 2 min 41 sec) 
Heartbeat CPU 0 instructions: 90000003 cycles: 71141976 heartbeat IPC: 0.661709 cumulative IPC: 0.762138 (Simulation time: 0 hr 3 min 5 sec) 
Heartbeat CPU 0 instructions: 100000003 cycles: 79621909 heartbeat IPC: 1.17925 cumulative IPC: 0.820158 (Simulation time: 0 hr 3 min 24 sec) 
Finished CPU 0 instructions: 50000000 cycles: 60963874 cumulative IPC: 0.820158 (Simulation time: 0 hr 3 min 24 sec) 

ChampSim completed all CPUs

Region of Interest Statistics

CPU 0 cumulative IPC: 0.820158 instructions: 50000000 cycles: 60963874
L1D TOTAL     ACCESS:   21657392  HIT:   17586285  MISS:    4071107
L1D LOAD      ACCESS:    8611461  HIT:    6593204  MISS:    2018257
L1D RFO       ACCESS:    4644633  HIT:    4537785  MISS:     106848
L1D PREFETCH  ACCESS:    8401298  HIT:    6455296  MISS:    1946002
L1D WRITEBACK ACCESS:          0  HIT:          0  MISS:          0
L1D PREFETCH  REQUESTED:    8646482  ISSUED:    8557069  USEFUL:     106345  USELESS:    1839652
L1D AVERAGE MISS LATENCY: 22.547 cycles
L1I TOTAL     ACCESS:   12375335  HIT:   10822255  MISS:    1553080
L1I LOAD      ACCESS:   10689134  HIT:   10504546  MISS:     184588
L1I RFO       ACCESS:          0  HIT:          0  MISS:          0
L1I PREFETCH  ACCESS:    1686201  HIT:     317709  MISS:    1368492
L1I WRITEBACK ACCESS:          0  HIT:          0  MISS:          0
L1I PREFETCH  REQUESTED:    1946369  ISSUED:    1946369  USEFUL:     944272  USELESS:     424229
L1I AVERAGE MISS LATENCY: 30.3128 cycles
L2C TOTAL     ACCESS:    7158768  HIT:    6166016  MISS:     992752
L2C LOAD      ACCESS:    2095821  HIT:    1838319  MISS:     257502
L2C RFO       ACCESS:     105548  HIT:      57437  MISS:      48111
L2C PREFETCH  ACCESS:    4712373  HIT:    4026332  MISS:     686041
L2C WRITEBACK ACCESS:     245026  HIT:     243928  MISS:       1098
L2C PREFETCH  REQUESTED:    6027332  ISSUED:    6025700  USEFUL:      23702  USELESS:     662141
L2C AVERAGE MISS LATENCY: 56.0975 cycles
LLC TOTAL     ACCESS:    2192414  HIT:    1992428  MISS:     199986
LLC LOAD      ACCESS:     257158  HIT:     216068  MISS:      41090
LLC RFO       ACCESS:      48105  HIT:      33816  MISS:      14289
LLC PREFETCH  ACCESS:    1748157  HIT:    1603839  MISS:     144318
LLC WRITEBACK ACCESS:     138994  HIT:     138705  MISS:        289
LLC PREFETCH  REQUESTED:          0  ISSUED:          0  USEFUL:      16919  USELESS:     126646
LLC AVERAGE MISS LATENCY: 173.826 cycles
Major fault: 0 Minor fault: 7592
CPU 0 L1D next line prefetcher final stats

DRAM Statistics
 CHANNEL 0
 RQ ROW_BUFFER_HIT:      43458  ROW_BUFFER_MISS:     156217
 DBUS_CONGESTED:      83861
 WQ ROW_BUFFER_HIT:      10754  ROW_BUFFER_MISS:      41360  FULL:          0

 AVG_CONGESTED_CYCLE: 5

CPU 0 Branch Prediction Accuracy: 98.1603% MPKI: 3.89124 Average ROB Occupancy at Mispredict: 64.841

Branch types
NOT_BRANCH: 39423760 78.8475%
BRANCH_DIRECT_JUMP: 551642 1.10328%
BRANCH_INDIRECT: 139368 0.278736%
BRANCH_CONDITIONAL: 7920859 15.8417%
BRANCH_DIRECT_CALL: 776072 1.55214%
BRANCH_INDIRECT_CALL: 194644 0.389288%
BRANCH_RETURN: 993311 1.98662%
BRANCH_OTHER: 0 0%

