Initialize SIGNATURE TABLE
ST_SET: 1
ST_WAY: 256
ST_TAG_BIT: 16
ST_TAG_MASK: ffff

Initialize PATTERN TABLE
PT_SET: 512
PT_WAY: 4
SIG_DELTA_BIT: 7
C_SIG_BIT: 4
C_DELTA_BIT: 4

Initialize PREFETCH FILTER
FILTER_SET: 1024

*** ChampSim Multicore Out-of-Order Simulator ***

Warmup Instructions: 50000000
Simulation Instructions: 50000000
Number of CPUs: 1
LLC sets: 2048
LLC ways: 16
Off-chip DRAM Size: 4096 MB Channels: 1 Width: 64-bit Data Rate: 3200 MT/s

CPU 0 runs /home/ykhodke/ChampSim/dpc3_traces/server_009.champsimtrace.xz
CPU 0 L1D next line prefetcher
Heartbeat CPU 0 instructions: 10000003 cycles: 3200037 heartbeat IPC: 3.12496 cumulative IPC: 3.12496 (Simulation time: 0 hr 0 min 18 sec) 
Heartbeat CPU 0 instructions: 20000001 cycles: 6392710 heartbeat IPC: 3.13217 cumulative IPC: 3.12856 (Simulation time: 0 hr 0 min 38 sec) 
Heartbeat CPU 0 instructions: 30000002 cycles: 9600019 heartbeat IPC: 3.11788 cumulative IPC: 3.12499 (Simulation time: 0 hr 0 min 56 sec) 
Heartbeat CPU 0 instructions: 40000003 cycles: 12803640 heartbeat IPC: 3.12147 cumulative IPC: 3.12411 (Simulation time: 0 hr 1 min 15 sec) 
Heartbeat CPU 0 instructions: 50000000 cycles: 16064180 heartbeat IPC: 3.06698 cumulative IPC: 3.11251 (Simulation time: 0 hr 1 min 34 sec) 

Warmup complete CPU 0 instructions: 50000004 cycles: 16064181 (Simulation time: 0 hr 1 min 34 sec) 

Heartbeat CPU 0 instructions: 60000002 cycles: 31635095 heartbeat IPC: 0.642223 cumulative IPC: 0.642223 (Simulation time: 0 hr 1 min 57 sec) 
Heartbeat CPU 0 instructions: 70000003 cycles: 52634076 heartbeat IPC: 0.476214 cumulative IPC: 0.546898 (Simulation time: 0 hr 2 min 26 sec) 
Heartbeat CPU 0 instructions: 80000000 cycles: 59718610 heartbeat IPC: 1.41153 cumulative IPC: 0.687215 (Simulation time: 0 hr 2 min 44 sec) 
Heartbeat CPU 0 instructions: 90000001 cycles: 66931916 heartbeat IPC: 1.38633 cumulative IPC: 0.786353 (Simulation time: 0 hr 3 min 2 sec) 
Heartbeat CPU 0 instructions: 100000003 cycles: 74021087 heartbeat IPC: 1.4106 cumulative IPC: 0.86271 (Simulation time: 0 hr 3 min 20 sec) 
Finished CPU 0 instructions: 50000003 cycles: 57956907 cumulative IPC: 0.86271 (Simulation time: 0 hr 3 min 20 sec) 

ChampSim completed all CPUs

Region of Interest Statistics

CPU 0 cumulative IPC: 0.86271 instructions: 50000003 cycles: 57956907
L1D TOTAL     ACCESS:   21637836  HIT:   17058238  MISS:    4579598
L1D LOAD      ACCESS:    8634049  HIT:    6353860  MISS:    2280189
L1D RFO       ACCESS:    4582119  HIT:    4477619  MISS:     104500
L1D PREFETCH  ACCESS:    8421668  HIT:    6226759  MISS:    2194909
L1D WRITEBACK ACCESS:          0  HIT:          0  MISS:          0
L1D PREFETCH  REQUESTED:    8666512  ISSUED:    8569622  USEFUL:     106366  USELESS:    2088541
L1D AVERAGE MISS LATENCY: 20.1305 cycles
L1I TOTAL     ACCESS:   12379340  HIT:   10893502  MISS:    1485838
L1I LOAD      ACCESS:   10738514  HIT:   10583707  MISS:     154807
L1I RFO       ACCESS:          0  HIT:          0  MISS:          0
L1I PREFETCH  ACCESS:    1640826  HIT:     309795  MISS:    1331031
L1I WRITEBACK ACCESS:          0  HIT:          0  MISS:          0
L1I PREFETCH  REQUESTED:    1893577  ISSUED:    1893577  USEFUL:     957122  USELESS:     373977
L1I AVERAGE MISS LATENCY: 28.2032 cycles
L2C TOTAL     ACCESS:    7674743  HIT:    6695171  MISS:     979572
L2C LOAD      ACCESS:    2321177  HIT:    2099590  MISS:     221587
L2C RFO       ACCESS:     103537  HIT:      64849  MISS:      38688
L2C PREFETCH  ACCESS:    4993165  HIT:    4274747  MISS:     718418
L2C WRITEBACK ACCESS:     256864  HIT:     255985  MISS:        879
L2C PREFETCH  REQUESTED:    6098973  ISSUED:    6095867  USEFUL:      21515  USELESS:     695873
L2C AVERAGE MISS LATENCY: 45.8977 cycles
LLC TOTAL     ACCESS:    2220280  HIT:    2094774  MISS:     125506
LLC LOAD      ACCESS:     221371  HIT:     203435  MISS:      17936
LLC RFO       ACCESS:      38686  HIT:      30052  MISS:       8634
LLC PREFETCH  ACCESS:    1826917  HIT:    1728239  MISS:      98678
LLC WRITEBACK ACCESS:     133306  HIT:     133048  MISS:        258
LLC PREFETCH  REQUESTED:          0  ISSUED:          0  USEFUL:       8988  USELESS:      86408
LLC AVERAGE MISS LATENCY: 172.663 cycles
Major fault: 0 Minor fault: 6351
CPU 0 L1D next line prefetcher final stats

DRAM Statistics
 CHANNEL 0
 RQ ROW_BUFFER_HIT:      24634  ROW_BUFFER_MISS:     100602
 DBUS_CONGESTED:      54869
 WQ ROW_BUFFER_HIT:       8940  ROW_BUFFER_MISS:      37793  FULL:          0

 AVG_CONGESTED_CYCLE: 5

CPU 0 Branch Prediction Accuracy: 99.4713% MPKI: 1.11484 Average ROB Occupancy at Mispredict: 115.898

Branch types
NOT_BRANCH: 39456615 78.9132%
BRANCH_DIRECT_JUMP: 445350 0.8907%
BRANCH_INDIRECT: 131149 0.262298%
BRANCH_CONDITIONAL: 8130196 16.2604%
BRANCH_DIRECT_CALL: 732485 1.46497%
BRANCH_INDIRECT_CALL: 172369 0.344738%
BRANCH_RETURN: 931558 1.86312%
BRANCH_OTHER: 0 0%

