Initialize SIGNATURE TABLE
ST_SET: 1
ST_WAY: 256
ST_TAG_BIT: 16
ST_TAG_MASK: ffff

Initialize PATTERN TABLE
PT_SET: 512
PT_WAY: 4
SIG_DELTA_BIT: 7
C_SIG_BIT: 4
C_DELTA_BIT: 4

Initialize PREFETCH FILTER
FILTER_SET: 1024

*** ChampSim Multicore Out-of-Order Simulator ***

Warmup Instructions: 50000000
Simulation Instructions: 50000000
Number of CPUs: 1
LLC sets: 2048
LLC ways: 16
Off-chip DRAM Size: 4096 MB Channels: 1 Width: 64-bit Data Rate: 3200 MT/s

CPU 0 runs /home/ykhodke/ChampSim/dpc3_traces/server_034.champsimtrace.xz
CPU 0 L1D next line prefetcher
Heartbeat CPU 0 instructions: 10000000 cycles: 3329805 heartbeat IPC: 3.00318 cumulative IPC: 3.00318 (Simulation time: 0 hr 0 min 21 sec) 
Heartbeat CPU 0 instructions: 20000002 cycles: 6652438 heartbeat IPC: 3.00966 cumulative IPC: 3.00642 (Simulation time: 0 hr 0 min 42 sec) 
Heartbeat CPU 0 instructions: 30000003 cycles: 9983759 heartbeat IPC: 3.00181 cumulative IPC: 3.00488 (Simulation time: 0 hr 1 min 4 sec) 
Heartbeat CPU 0 instructions: 40000001 cycles: 13313016 heartbeat IPC: 3.00367 cumulative IPC: 3.00458 (Simulation time: 0 hr 1 min 25 sec) 
Heartbeat CPU 0 instructions: 50000000 cycles: 16641246 heartbeat IPC: 3.0046 cumulative IPC: 3.00458 (Simulation time: 0 hr 1 min 46 sec) 

Warmup complete CPU 0 instructions: 50000002 cycles: 16641247 (Simulation time: 0 hr 1 min 46 sec) 

Heartbeat CPU 0 instructions: 60000002 cycles: 22610111 heartbeat IPC: 1.67536 cumulative IPC: 1.67536 (Simulation time: 0 hr 2 min 9 sec) 
Heartbeat CPU 0 instructions: 70000003 cycles: 28987372 heartbeat IPC: 1.56807 cumulative IPC: 1.61994 (Simulation time: 0 hr 2 min 31 sec) 
Heartbeat CPU 0 instructions: 80000002 cycles: 35037527 heartbeat IPC: 1.65285 cumulative IPC: 1.63076 (Simulation time: 0 hr 2 min 54 sec) 
Heartbeat CPU 0 instructions: 90000002 cycles: 41083266 heartbeat IPC: 1.65406 cumulative IPC: 1.63653 (Simulation time: 0 hr 3 min 16 sec) 
Heartbeat CPU 0 instructions: 100000002 cycles: 47099997 heartbeat IPC: 1.66203 cumulative IPC: 1.64156 (Simulation time: 0 hr 3 min 39 sec) 
Finished CPU 0 instructions: 50000000 cycles: 30458750 cumulative IPC: 1.64156 (Simulation time: 0 hr 3 min 39 sec) 

ChampSim completed all CPUs

Region of Interest Statistics

CPU 0 cumulative IPC: 1.64156 instructions: 50000000 cycles: 30458750
L1D TOTAL     ACCESS:   18294147  HIT:   16870021  MISS:    1424126
L1D LOAD      ACCESS:    6155697  HIT:    5499780  MISS:     655917
L1D RFO       ACCESS:    6163617  HIT:    6020778  MISS:     142839
L1D PREFETCH  ACCESS:    5974833  HIT:    5349463  MISS:     625370
L1D WRITEBACK ACCESS:          0  HIT:          0  MISS:          0
L1D PREFETCH  REQUESTED:    6190419  ISSUED:    6102390  USEFUL:     140928  USELESS:     484411
L1D AVERAGE MISS LATENCY: 17.8015 cycles
L1I TOTAL     ACCESS:   14372015  HIT:   10179838  MISS:    4192177
L1I LOAD      ACCESS:    9594610  HIT:    9283927  MISS:     310683
L1I RFO       ACCESS:          0  HIT:          0  MISS:          0
L1I PREFETCH  ACCESS:    4777405  HIT:     895911  MISS:    3881494
L1I WRITEBACK ACCESS:          0  HIT:          0  MISS:          0
L1I PREFETCH  REQUESTED:    5481527  ISSUED:    5481527  USEFUL:    3062051  USELESS:     819467
L1I AVERAGE MISS LATENCY: 14.2638 cycles
L2C TOTAL     ACCESS:    7493102  HIT:    7362040  MISS:     131062
L2C LOAD      ACCESS:     753557  HIT:     711731  MISS:      41826
L2C RFO       ACCESS:     141017  HIT:     132811  MISS:       8206
L2C PREFETCH  ACCESS:    6247789  HIT:    6167552  MISS:      80237
L2C WRITEBACK ACCESS:     350739  HIT:     349946  MISS:        793
L2C PREFETCH  REQUESTED:    4460269  ISSUED:    4457100  USEFUL:       2804  USELESS:      76664
L2C AVERAGE MISS LATENCY: 40.7966 cycles
LLC TOTAL     ACCESS:    1425591  HIT:    1409173  MISS:      16418
LLC LOAD      ACCESS:      41754  HIT:      38621  MISS:       3133
LLC RFO       ACCESS:       8206  HIT:       7832  MISS:        374
LLC PREFETCH  ACCESS:    1336476  HIT:    1323652  MISS:      12824
LLC WRITEBACK ACCESS:      39155  HIT:      39068  MISS:         87
LLC PREFETCH  REQUESTED:          0  ISSUED:          0  USEFUL:       3047  USELESS:       6504
LLC AVERAGE MISS LATENCY: 160.654 cycles
Major fault: 0 Minor fault: 1170
CPU 0 L1D next line prefetcher final stats

DRAM Statistics
 CHANNEL 0
 RQ ROW_BUFFER_HIT:       3737  ROW_BUFFER_MISS:      12589
 DBUS_CONGESTED:       6672
 WQ ROW_BUFFER_HIT:       1249  ROW_BUFFER_MISS:       3753  FULL:          0

 AVG_CONGESTED_CYCLE: 5

CPU 0 Branch Prediction Accuracy: 99.926% MPKI: 0.14472 Average ROB Occupancy at Mispredict: 234.64

Branch types
NOT_BRANCH: 40221041 80.4421%
BRANCH_DIRECT_JUMP: 771319 1.54264%
BRANCH_INDIRECT: 108663 0.217326%
BRANCH_CONDITIONAL: 6375040 12.7501%
BRANCH_DIRECT_CALL: 1049637 2.09927%
BRANCH_INDIRECT_CALL: 212282 0.424564%
BRANCH_RETURN: 1261926 2.52385%
BRANCH_OTHER: 0 0%

