Initialize SIGNATURE TABLE
ST_SET: 1
ST_WAY: 256
ST_TAG_BIT: 16
ST_TAG_MASK: ffff

Initialize PATTERN TABLE
PT_SET: 512
PT_WAY: 4
SIG_DELTA_BIT: 7
C_SIG_BIT: 4
C_DELTA_BIT: 4

Initialize PREFETCH FILTER
FILTER_SET: 1024

*** ChampSim Multicore Out-of-Order Simulator ***

Warmup Instructions: 50000000
Simulation Instructions: 50000000
Number of CPUs: 1
LLC sets: 2048
LLC ways: 16
Off-chip DRAM Size: 4096 MB Channels: 1 Width: 64-bit Data Rate: 3200 MT/s

CPU 0 runs /home/ykhodke/ChampSim/dpc3_traces/server_026.champsimtrace.xz
CPU 0 L1D next line prefetcher
Heartbeat CPU 0 instructions: 10000000 cycles: 3526895 heartbeat IPC: 2.83536 cumulative IPC: 2.83536 (Simulation time: 0 hr 0 min 20 sec) 
Heartbeat CPU 0 instructions: 20000002 cycles: 7058683 heartbeat IPC: 2.83143 cumulative IPC: 2.83339 (Simulation time: 0 hr 0 min 41 sec) 
Heartbeat CPU 0 instructions: 30000000 cycles: 10581117 heartbeat IPC: 2.83895 cumulative IPC: 2.83524 (Simulation time: 0 hr 1 min 2 sec) 
Heartbeat CPU 0 instructions: 40000003 cycles: 14112034 heartbeat IPC: 2.83213 cumulative IPC: 2.83446 (Simulation time: 0 hr 1 min 23 sec) 
Heartbeat CPU 0 instructions: 50000000 cycles: 17635639 heartbeat IPC: 2.838 cumulative IPC: 2.83517 (Simulation time: 0 hr 1 min 44 sec) 

Warmup complete CPU 0 instructions: 50000004 cycles: 17635640 (Simulation time: 0 hr 1 min 44 sec) 

*** Reached end of trace for Core: 0 Repeating trace: /home/ykhodke/ChampSim/dpc3_traces/server_026.champsimtrace.xz
Heartbeat CPU 0 instructions: 60000000 cycles: 24610768 heartbeat IPC: 1.43367 cumulative IPC: 1.43366 (Simulation time: 0 hr 2 min 7 sec) 
Heartbeat CPU 0 instructions: 70000003 cycles: 31481850 heartbeat IPC: 1.45538 cumulative IPC: 1.44444 (Simulation time: 0 hr 2 min 30 sec) 
Heartbeat CPU 0 instructions: 80000002 cycles: 38447122 heartbeat IPC: 1.43569 cumulative IPC: 1.44151 (Simulation time: 0 hr 2 min 53 sec) 
Heartbeat CPU 0 instructions: 90000002 cycles: 45313485 heartbeat IPC: 1.45638 cumulative IPC: 1.4452 (Simulation time: 0 hr 3 min 15 sec) 
Heartbeat CPU 0 instructions: 100000000 cycles: 52246309 heartbeat IPC: 1.44241 cumulative IPC: 1.44464 (Simulation time: 0 hr 3 min 38 sec) 
Finished CPU 0 instructions: 50000000 cycles: 34610670 cumulative IPC: 1.44464 (Simulation time: 0 hr 3 min 38 sec) 

ChampSim completed all CPUs

Region of Interest Statistics

CPU 0 cumulative IPC: 1.44464 instructions: 50000000 cycles: 34610670
L1D TOTAL     ACCESS:   19840467  HIT:   18195168  MISS:    1645299
L1D LOAD      ACCESS:    6964841  HIT:    6235150  MISS:     729691
L1D RFO       ACCESS:    6246553  HIT:    5959723  MISS:     286830
L1D PREFETCH  ACCESS:    6629073  HIT:    6000295  MISS:     628778
L1D WRITEBACK ACCESS:          0  HIT:          0  MISS:          0
L1D PREFETCH  REQUESTED:    7011968  ISSUED:    6871896  USEFUL:     150808  USELESS:     477981
L1D AVERAGE MISS LATENCY: 23.6559 cycles
L1I TOTAL     ACCESS:   13631349  HIT:    9914924  MISS:    3716425
L1I LOAD      ACCESS:    9415236  HIT:    9115234  MISS:     300002
L1I RFO       ACCESS:          0  HIT:          0  MISS:          0
L1I PREFETCH  ACCESS:    4216113  HIT:     799690  MISS:    3416423
L1I WRITEBACK ACCESS:          0  HIT:          0  MISS:          0
L1I PREFETCH  REQUESTED:    4828610  ISSUED:    4828610  USEFUL:    2539926  USELESS:     876525
L1I AVERAGE MISS LATENCY: 16.7123 cycles
L2C TOTAL     ACCESS:    7259631  HIT:    6508643  MISS:     750988
L2C LOAD      ACCESS:     793677  HIT:     646243  MISS:     147434
L2C RFO       ACCESS:     284678  HIT:     190176  MISS:      94502
L2C PREFETCH  ACCESS:    5620118  HIT:    5114651  MISS:     505467
L2C WRITEBACK ACCESS:     561158  HIT:     557573  MISS:       3585
L2C PREFETCH  REQUESTED:    3944694  ISSUED:    3940826  USEFUL:      16886  USELESS:     488199
L2C AVERAGE MISS LATENCY: 37.8353 cycles
LLC TOTAL     ACCESS:    2017073  HIT:    1982357  MISS:      34716
LLC LOAD      ACCESS:     147278  HIT:     143775  MISS:       3503
LLC RFO       ACCESS:      94480  HIT:      80094  MISS:      14386
LLC PREFETCH  ACCESS:    1616025  HIT:    1599400  MISS:      16625
LLC WRITEBACK ACCESS:     159290  HIT:     159088  MISS:        202
LLC PREFETCH  REQUESTED:          0  ISSUED:          0  USEFUL:        931  USELESS:      15479
LLC AVERAGE MISS LATENCY: 187.416 cycles
Major fault: 0 Minor fault: 2165
CPU 0 L1D next line prefetcher final stats

DRAM Statistics
 CHANNEL 0
 RQ ROW_BUFFER_HIT:      12074  ROW_BUFFER_MISS:      22432
 DBUS_CONGESTED:      22441
 WQ ROW_BUFFER_HIT:       1398  ROW_BUFFER_MISS:      14308  FULL:          0

 AVG_CONGESTED_CYCLE: 6

CPU 0 Branch Prediction Accuracy: 99.822% MPKI: 0.32584 Average ROB Occupancy at Mispredict: 185.875

Branch types
NOT_BRANCH: 40848574 81.6971%
BRANCH_DIRECT_JUMP: 522045 1.04409%
BRANCH_INDIRECT: 204034 0.408068%
BRANCH_CONDITIONAL: 6212963 12.4259%
BRANCH_DIRECT_CALL: 932393 1.86479%
BRANCH_INDIRECT_CALL: 173764 0.347528%
BRANCH_RETURN: 1106152 2.2123%
BRANCH_OTHER: 0 0%

