Initialize SIGNATURE TABLE
ST_SET: 1
ST_WAY: 256
ST_TAG_BIT: 16
ST_TAG_MASK: ffff

Initialize PATTERN TABLE
PT_SET: 512
PT_WAY: 4
SIG_DELTA_BIT: 7
C_SIG_BIT: 4
C_DELTA_BIT: 4

Initialize PREFETCH FILTER
FILTER_SET: 1024

*** ChampSim Multicore Out-of-Order Simulator ***

Warmup Instructions: 50000000
Simulation Instructions: 50000000
Number of CPUs: 1
LLC sets: 2048
LLC ways: 16
Off-chip DRAM Size: 4096 MB Channels: 1 Width: 64-bit Data Rate: 3200 MT/s

CPU 0 runs /home/ykhodke/ChampSim/dpc3_traces/server_019.champsimtrace.xz
CPU 0 L1D next line prefetcher
Heartbeat CPU 0 instructions: 10000002 cycles: 3625431 heartbeat IPC: 2.75829 cumulative IPC: 2.75829 (Simulation time: 0 hr 0 min 20 sec) 
Heartbeat CPU 0 instructions: 20000003 cycles: 7252219 heartbeat IPC: 2.75726 cumulative IPC: 2.75778 (Simulation time: 0 hr 0 min 40 sec) 
Heartbeat CPU 0 instructions: 30000002 cycles: 10877890 heartbeat IPC: 2.75811 cumulative IPC: 2.75789 (Simulation time: 0 hr 1 min 0 sec) 
Heartbeat CPU 0 instructions: 40000002 cycles: 14514883 heartbeat IPC: 2.74952 cumulative IPC: 2.75579 (Simulation time: 0 hr 1 min 20 sec) 
Heartbeat CPU 0 instructions: 50000001 cycles: 18140697 heartbeat IPC: 2.758 cumulative IPC: 2.75623 (Simulation time: 0 hr 1 min 40 sec) 

Warmup complete CPU 0 instructions: 50000001 cycles: 18140697 (Simulation time: 0 hr 1 min 40 sec) 

Heartbeat CPU 0 instructions: 60000000 cycles: 38508705 heartbeat IPC: 0.490966 cumulative IPC: 0.490966 (Simulation time: 0 hr 2 min 7 sec) 
Heartbeat CPU 0 instructions: 70000002 cycles: 62510137 heartbeat IPC: 0.416642 cumulative IPC: 0.450761 (Simulation time: 0 hr 2 min 32 sec) 
Heartbeat CPU 0 instructions: 80000001 cycles: 83489612 heartbeat IPC: 0.476656 cumulative IPC: 0.459074 (Simulation time: 0 hr 2 min 57 sec) 
Heartbeat CPU 0 instructions: 90000002 cycles: 101671259 heartbeat IPC: 0.550005 cumulative IPC: 0.478867 (Simulation time: 0 hr 3 min 24 sec) 
Heartbeat CPU 0 instructions: 100000002 cycles: 119842249 heartbeat IPC: 0.550328 cumulative IPC: 0.491635 (Simulation time: 0 hr 3 min 51 sec) 
Finished CPU 0 instructions: 50000001 cycles: 101701552 cumulative IPC: 0.491635 (Simulation time: 0 hr 3 min 51 sec) 

ChampSim completed all CPUs

Region of Interest Statistics

CPU 0 cumulative IPC: 0.491635 instructions: 50000001 cycles: 101701552
L1D TOTAL     ACCESS:   18328575  HIT:   16104940  MISS:    2223635
L1D LOAD      ACCESS:    6979328  HIT:    6215537  MISS:     763791
L1D RFO       ACCESS:    5545029  HIT:    4642788  MISS:     902241
L1D PREFETCH  ACCESS:    5804218  HIT:    5246615  MISS:     557603
L1D WRITEBACK ACCESS:          0  HIT:          0  MISS:          0
L1D PREFETCH  REQUESTED:    7017492  ISSUED:    6831820  USEFUL:     188386  USELESS:     369125
L1D AVERAGE MISS LATENCY: 186.132 cycles
L1I TOTAL     ACCESS:   12844252  HIT:   10381494  MISS:    2462758
L1I LOAD      ACCESS:    9847914  HIT:    9686755  MISS:     161159
L1I RFO       ACCESS:          0  HIT:          0  MISS:          0
L1I PREFETCH  ACCESS:    2996338  HIT:     694739  MISS:    2301599
L1I WRITEBACK ACCESS:          0  HIT:          0  MISS:          0
L1I PREFETCH  REQUESTED:    3414329  ISSUED:    3414329  USEFUL:    2077747  USELESS:     223807
L1I AVERAGE MISS LATENCY: 17.7305 cycles
L2C TOTAL     ACCESS:    6979485  HIT:    5097071  MISS:    1882414
L2C LOAD      ACCESS:     586361  HIT:     250111  MISS:     336250
L2C RFO       ACCESS:     901569  HIT:      18153  MISS:     883416
L2C PREFETCH  ACCESS:    4316849  HIT:    3656416  MISS:     660433
L2C WRITEBACK ACCESS:    1174706  HIT:    1172391  MISS:       2315
L2C PREFETCH  REQUESTED:    3546461  ISSUED:    3543296  USEFUL:      21982  USELESS:     637082
L2C AVERAGE MISS LATENCY: 225.108 cycles
LLC TOTAL     ACCESS:    4090206  HIT:    2488900  MISS:    1601306
LLC LOAD      ACCESS:     336232  HIT:     168680  MISS:     167552
LLC RFO       ACCESS:     883407  HIT:     113916  MISS:     769491
LLC PREFETCH  ACCESS:    1759866  HIT:    1097735  MISS:     662131
LLC WRITEBACK ACCESS:    1110701  HIT:    1108569  MISS:       2132
LLC PREFETCH  REQUESTED:          0  ISSUED:          0  USEFUL:      50472  USELESS:     610505
LLC AVERAGE MISS LATENCY: 272.894 cycles
Major fault: 0 Minor fault: 25691
CPU 0 L1D next line prefetcher final stats

DRAM Statistics
 CHANNEL 0
 RQ ROW_BUFFER_HIT:     389670  ROW_BUFFER_MISS:    1209201
 DBUS_CONGESTED:    1556428
 WQ ROW_BUFFER_HIT:     280368  ROW_BUFFER_MISS:     656848  FULL:          0

 AVG_CONGESTED_CYCLE: 6

CPU 0 Branch Prediction Accuracy: 99.2186% MPKI: 1.32192 Average ROB Occupancy at Mispredict: 178.779

Branch types
NOT_BRANCH: 41540921 83.0818%
BRANCH_DIRECT_JUMP: 462384 0.924768%
BRANCH_INDIRECT: 45460 0.09092%
BRANCH_CONDITIONAL: 6209289 12.4186%
BRANCH_DIRECT_CALL: 666241 1.33248%
BRANCH_INDIRECT_CALL: 204728 0.409456%
BRANCH_RETURN: 870978 1.74196%
BRANCH_OTHER: 0 0%

