Initialize SIGNATURE TABLE
ST_SET: 1
ST_WAY: 256
ST_TAG_BIT: 16
ST_TAG_MASK: ffff

Initialize PATTERN TABLE
PT_SET: 512
PT_WAY: 4
SIG_DELTA_BIT: 7
C_SIG_BIT: 4
C_DELTA_BIT: 4

Initialize PREFETCH FILTER
FILTER_SET: 1024

*** ChampSim Multicore Out-of-Order Simulator ***

Warmup Instructions: 50000000
Simulation Instructions: 50000000
Number of CPUs: 1
LLC sets: 2048
LLC ways: 16
Off-chip DRAM Size: 4096 MB Channels: 1 Width: 64-bit Data Rate: 3200 MT/s

CPU 0 runs /home/ykhodke/ChampSim/dpc3_traces/spec_gobmk_002.champsimtrace.xz
CPU 0 L1D next line prefetcher
Heartbeat CPU 0 instructions: 10000001 cycles: 3287471 heartbeat IPC: 3.04185 cumulative IPC: 3.04185 (Simulation time: 0 hr 0 min 18 sec) 
Heartbeat CPU 0 instructions: 20000000 cycles: 6619029 heartbeat IPC: 3.0016 cumulative IPC: 3.02159 (Simulation time: 0 hr 0 min 36 sec) 
Heartbeat CPU 0 instructions: 30000000 cycles: 9956993 heartbeat IPC: 2.99584 cumulative IPC: 3.01296 (Simulation time: 0 hr 0 min 55 sec) 
Heartbeat CPU 0 instructions: 40000000 cycles: 13266376 heartbeat IPC: 3.02171 cumulative IPC: 3.01514 (Simulation time: 0 hr 1 min 16 sec) 
Heartbeat CPU 0 instructions: 50000003 cycles: 16529904 heartbeat IPC: 3.06417 cumulative IPC: 3.02482 (Simulation time: 0 hr 1 min 38 sec) 

Warmup complete CPU 0 instructions: 50000003 cycles: 16529904 (Simulation time: 0 hr 1 min 38 sec) 

Heartbeat CPU 0 instructions: 60000003 cycles: 23842382 heartbeat IPC: 1.36753 cumulative IPC: 1.36753 (Simulation time: 0 hr 1 min 57 sec) 
Heartbeat CPU 0 instructions: 70000001 cycles: 31104549 heartbeat IPC: 1.377 cumulative IPC: 1.37225 (Simulation time: 0 hr 2 min 17 sec) 
Heartbeat CPU 0 instructions: 80000000 cycles: 38236111 heartbeat IPC: 1.40222 cumulative IPC: 1.38209 (Simulation time: 0 hr 2 min 37 sec) 
Heartbeat CPU 0 instructions: 90000001 cycles: 45714918 heartbeat IPC: 1.33711 cumulative IPC: 1.37057 (Simulation time: 0 hr 2 min 54 sec) 
Heartbeat CPU 0 instructions: 100000003 cycles: 53415894 heartbeat IPC: 1.29854 cumulative IPC: 1.35553 (Simulation time: 0 hr 3 min 12 sec) 
Finished CPU 0 instructions: 50000000 cycles: 36885990 cumulative IPC: 1.35553 (Simulation time: 0 hr 3 min 12 sec) 

ChampSim completed all CPUs

Region of Interest Statistics

CPU 0 cumulative IPC: 1.35553 instructions: 50000000 cycles: 36885990
L1D TOTAL     ACCESS:   17589371  HIT:   17466243  MISS:     123128
L1D LOAD      ACCESS:    6640603  HIT:    6606336  MISS:      34267
L1D RFO       ACCESS:    4386815  HIT:    4344112  MISS:      42703
L1D PREFETCH  ACCESS:    6561953  HIT:    6515795  MISS:      46158
L1D WRITEBACK ACCESS:          0  HIT:          0  MISS:          0
L1D PREFETCH  REQUESTED:    6643076  ISSUED:    6575821  USEFUL:      17089  USELESS:      29254
L1D AVERAGE MISS LATENCY: 50.9617 cycles
L1I TOTAL     ACCESS:   10996442  HIT:    9379904  MISS:    1616538
L1I LOAD      ACCESS:    8842744  HIT:    8775315  MISS:      67429
L1I RFO       ACCESS:          0  HIT:          0  MISS:          0
L1I PREFETCH  ACCESS:    2153698  HIT:     604589  MISS:    1549109
L1I WRITEBACK ACCESS:          0  HIT:          0  MISS:          0
L1I PREFETCH  REQUESTED:    2328606  ISSUED:    2328606  USEFUL:     893406  USELESS:     655730
L1I AVERAGE MISS LATENCY: 14.2863 cycles
L2C TOTAL     ACCESS:    2396871  HIT:    2359159  MISS:      37712
L2C LOAD      ACCESS:      66440  HIT:      52821  MISS:      13619
L2C RFO       ACCESS:      42560  HIT:      39794  MISS:       2766
L2C PREFETCH  ACCESS:    2213664  HIT:    2192485  MISS:      21179
L2C WRITEBACK ACCESS:      74207  HIT:      74059  MISS:        148
L2C PREFETCH  REQUESTED:     954029  ISSUED:     954029  USEFUL:       2160  USELESS:      19376
L2C AVERAGE MISS LATENCY: 127.283 cycles
LLC TOTAL     ACCESS:     119533  HIT:      88494  MISS:      31039
LLC LOAD      ACCESS:      13619  HIT:       4774  MISS:       8845
LLC RFO       ACCESS:       2766  HIT:       1146  MISS:       1620
LLC PREFETCH  ACCESS:      85095  HIT:      65070  MISS:      20025
LLC WRITEBACK ACCESS:      18053  HIT:      17504  MISS:        549
LLC PREFETCH  REQUESTED:          0  ISSUED:          0  USEFUL:       2006  USELESS:      17681
LLC AVERAGE MISS LATENCY: 181.848 cycles
Major fault: 0 Minor fault: 2776
CPU 0 L1D next line prefetcher final stats

DRAM Statistics
 CHANNEL 0
 RQ ROW_BUFFER_HIT:       2535  ROW_BUFFER_MISS:      27955
 DBUS_CONGESTED:      14153
 WQ ROW_BUFFER_HIT:        878  ROW_BUFFER_MISS:      12505  FULL:          0

 AVG_CONGESTED_CYCLE: 4

CPU 0 Branch Prediction Accuracy: 93.9974% MPKI: 10.2447 Average ROB Occupancy at Mispredict: 40.8575

Branch types
NOT_BRANCH: 41466058 82.9321%
BRANCH_DIRECT_JUMP: 464313 0.928626%
BRANCH_INDIRECT: 32 6.4e-05%
BRANCH_CONDITIONAL: 7069453 14.1389%
BRANCH_DIRECT_CALL: 499587 0.999174%
BRANCH_INDIRECT_CALL: 342 0.000684%
BRANCH_RETURN: 499906 0.999812%
BRANCH_OTHER: 0 0%

