Initialize SIGNATURE TABLE
ST_SET: 1
ST_WAY: 256
ST_TAG_BIT: 16
ST_TAG_MASK: ffff

Initialize PATTERN TABLE
PT_SET: 512
PT_WAY: 4
SIG_DELTA_BIT: 7
C_SIG_BIT: 4
C_DELTA_BIT: 4

Initialize PREFETCH FILTER
FILTER_SET: 1024

*** ChampSim Multicore Out-of-Order Simulator ***

Warmup Instructions: 50000000
Simulation Instructions: 50000000
Number of CPUs: 1
LLC sets: 2048
LLC ways: 16
Off-chip DRAM Size: 4096 MB Channels: 1 Width: 64-bit Data Rate: 3200 MT/s

CPU 0 runs /home/ykhodke/ChampSim/dpc3_traces/spec_perlbench_001.champsimtrace.xz
CPU 0 L1D next line prefetcher
Heartbeat CPU 0 instructions: 10000000 cycles: 3276072 heartbeat IPC: 3.05244 cumulative IPC: 3.05244 (Simulation time: 0 hr 0 min 18 sec) 
Heartbeat CPU 0 instructions: 20000000 cycles: 6540899 heartbeat IPC: 3.06295 cumulative IPC: 3.05768 (Simulation time: 0 hr 0 min 39 sec) 
Heartbeat CPU 0 instructions: 30000002 cycles: 9857822 heartbeat IPC: 3.01484 cumulative IPC: 3.04327 (Simulation time: 0 hr 1 min 0 sec) 
Heartbeat CPU 0 instructions: 40000002 cycles: 13113454 heartbeat IPC: 3.0716 cumulative IPC: 3.0503 (Simulation time: 0 hr 1 min 21 sec) 
Heartbeat CPU 0 instructions: 50000001 cycles: 16387498 heartbeat IPC: 3.05433 cumulative IPC: 3.05111 (Simulation time: 0 hr 1 min 41 sec) 

Warmup complete CPU 0 instructions: 50000001 cycles: 16387498 (Simulation time: 0 hr 1 min 41 sec) 

Heartbeat CPU 0 instructions: 60000001 cycles: 24663380 heartbeat IPC: 1.20833 cumulative IPC: 1.20833 (Simulation time: 0 hr 2 min 2 sec) 
Heartbeat CPU 0 instructions: 70000003 cycles: 32764986 heartbeat IPC: 1.23432 cumulative IPC: 1.22119 (Simulation time: 0 hr 2 min 24 sec) 
Heartbeat CPU 0 instructions: 80000000 cycles: 41164973 heartbeat IPC: 1.19048 cumulative IPC: 1.21078 (Simulation time: 0 hr 2 min 45 sec) 
Heartbeat CPU 0 instructions: 90000000 cycles: 46928036 heartbeat IPC: 1.73519 cumulative IPC: 1.30973 (Simulation time: 0 hr 3 min 5 sec) 
Heartbeat CPU 0 instructions: 100000002 cycles: 52834769 heartbeat IPC: 1.69298 cumulative IPC: 1.37184 (Simulation time: 0 hr 3 min 24 sec) 
Finished CPU 0 instructions: 50000001 cycles: 36447271 cumulative IPC: 1.37184 (Simulation time: 0 hr 3 min 24 sec) 

ChampSim completed all CPUs

Region of Interest Statistics

CPU 0 cumulative IPC: 1.37184 instructions: 50000001 cycles: 36447271
L1D TOTAL     ACCESS:   20695146  HIT:   20280046  MISS:     415100
L1D LOAD      ACCESS:    7177436  HIT:    6963654  MISS:     213782
L1D RFO       ACCESS:    6542072  HIT:    6523554  MISS:      18518
L1D PREFETCH  ACCESS:    6975638  HIT:    6792838  MISS:     182800
L1D WRITEBACK ACCESS:          0  HIT:          0  MISS:          0
L1D PREFETCH  REQUESTED:    7193135  ISSUED:    7077077  USEFUL:      55121  USELESS:     127674
L1D AVERAGE MISS LATENCY: 59.1948 cycles
L1I TOTAL     ACCESS:   10308356  HIT:    9366156  MISS:     942200
L1I LOAD      ACCESS:    9149646  HIT:    9060258  MISS:      89388
L1I RFO       ACCESS:          0  HIT:          0  MISS:          0
L1I PREFETCH  ACCESS:    1158710  HIT:     305898  MISS:     852812
L1I WRITEBACK ACCESS:          0  HIT:          0  MISS:          0
L1I PREFETCH  REQUESTED:    1332051  ISSUED:    1332051  USEFUL:     449669  USELESS:     403169
L1I AVERAGE MISS LATENCY: 15.6542 cycles
L2C TOTAL     ACCESS:    1832763  HIT:    1665394  MISS:     167369
L2C LOAD      ACCESS:     242970  HIT:     164536  MISS:      78434
L2C RFO       ACCESS:      18270  HIT:      12801  MISS:       5469
L2C PREFETCH  ACCESS:    1492566  HIT:    1409475  MISS:      83091
L2C WRITEBACK ACCESS:      78957  HIT:      78582  MISS:        375
L2C PREFETCH  REQUESTED:     953897  ISSUED:     953884  USEFUL:       4788  USELESS:      78276
L2C AVERAGE MISS LATENCY: 121.93 cycles
LLC TOTAL     ACCESS:     403756  HIT:     262673  MISS:     141083
LLC LOAD      ACCESS:      78432  HIT:      28633  MISS:      49799
LLC RFO       ACCESS:       5469  HIT:       2370  MISS:       3099
LLC PREFETCH  ACCESS:     294329  HIT:     206628  MISS:      87701
LLC WRITEBACK ACCESS:      25526  HIT:      25042  MISS:        484
LLC PREFETCH  REQUESTED:          0  ISSUED:          0  USEFUL:      12214  USELESS:      75889
LLC AVERAGE MISS LATENCY: 160.149 cycles
Major fault: 0 Minor fault: 6364
CPU 0 L1D next line prefetcher final stats

DRAM Statistics
 CHANNEL 0
 RQ ROW_BUFFER_HIT:      32168  ROW_BUFFER_MISS:     108431
 DBUS_CONGESTED:      55721
 WQ ROW_BUFFER_HIT:       4293  ROW_BUFFER_MISS:      12989  FULL:          0

 AVG_CONGESTED_CYCLE: 4

CPU 0 Branch Prediction Accuracy: 98.7418% MPKI: 2.47758 Average ROB Occupancy at Mispredict: 79.8544

Branch types
NOT_BRANCH: 40154100 80.3082%
BRANCH_DIRECT_JUMP: 817094 1.63419%
BRANCH_INDIRECT: 303787 0.607574%
BRANCH_CONDITIONAL: 7492103 14.9842%
BRANCH_DIRECT_CALL: 471777 0.943554%
BRANCH_INDIRECT_CALL: 144546 0.289092%
BRANCH_RETURN: 616324 1.23265%
BRANCH_OTHER: 0 0%

