Initialize SIGNATURE TABLE
ST_SET: 1
ST_WAY: 256
ST_TAG_BIT: 16
ST_TAG_MASK: ffff

Initialize PATTERN TABLE
PT_SET: 512
PT_WAY: 4
SIG_DELTA_BIT: 7
C_SIG_BIT: 4
C_DELTA_BIT: 4

Initialize PREFETCH FILTER
FILTER_SET: 1024

*** ChampSim Multicore Out-of-Order Simulator ***

Warmup Instructions: 50000000
Simulation Instructions: 50000000
Number of CPUs: 1
LLC sets: 2048
LLC ways: 16
Off-chip DRAM Size: 4096 MB Channels: 1 Width: 64-bit Data Rate: 3200 MT/s

CPU 0 runs /home/ykhodke/ChampSim/dpc3_traces/spec_gobmk_001.champsimtrace.xz
CPU 0 L1D next line prefetcher
Heartbeat CPU 0 instructions: 10000003 cycles: 3508220 heartbeat IPC: 2.85045 cumulative IPC: 2.85045 (Simulation time: 0 hr 0 min 16 sec) 
Heartbeat CPU 0 instructions: 20000002 cycles: 6989913 heartbeat IPC: 2.87217 cumulative IPC: 2.86127 (Simulation time: 0 hr 0 min 33 sec) 
Heartbeat CPU 0 instructions: 30000002 cycles: 10508988 heartbeat IPC: 2.84166 cumulative IPC: 2.8547 (Simulation time: 0 hr 0 min 50 sec) 
Heartbeat CPU 0 instructions: 40000001 cycles: 14028337 heartbeat IPC: 2.84143 cumulative IPC: 2.85137 (Simulation time: 0 hr 1 min 6 sec) 
Heartbeat CPU 0 instructions: 50000001 cycles: 17568478 heartbeat IPC: 2.82475 cumulative IPC: 2.84601 (Simulation time: 0 hr 1 min 24 sec) 

Warmup complete CPU 0 instructions: 50000001 cycles: 17568478 (Simulation time: 0 hr 1 min 24 sec) 

Heartbeat CPU 0 instructions: 60000000 cycles: 26270015 heartbeat IPC: 1.14922 cumulative IPC: 1.14922 (Simulation time: 0 hr 1 min 40 sec) 
Heartbeat CPU 0 instructions: 70000002 cycles: 34618411 heartbeat IPC: 1.19784 cumulative IPC: 1.17303 (Simulation time: 0 hr 1 min 57 sec) 
Heartbeat CPU 0 instructions: 80000003 cycles: 43396794 heartbeat IPC: 1.13916 cumulative IPC: 1.16152 (Simulation time: 0 hr 2 min 13 sec) 
Heartbeat CPU 0 instructions: 90000001 cycles: 51860853 heartbeat IPC: 1.18147 cumulative IPC: 1.16644 (Simulation time: 0 hr 2 min 28 sec) 
Heartbeat CPU 0 instructions: 100000003 cycles: 60627705 heartbeat IPC: 1.14066 cumulative IPC: 1.16119 (Simulation time: 0 hr 2 min 44 sec) 
Finished CPU 0 instructions: 50000002 cycles: 43059227 cumulative IPC: 1.16119 (Simulation time: 0 hr 2 min 44 sec) 

ChampSim completed all CPUs

Region of Interest Statistics

CPU 0 cumulative IPC: 1.16119 instructions: 50000002 cycles: 43059227
L1D TOTAL     ACCESS:   17962064  HIT:   17582536  MISS:     379528
L1D LOAD      ACCESS:    7199895  HIT:    7064506  MISS:     135389
L1D RFO       ACCESS:    3701873  HIT:    3597296  MISS:     104577
L1D PREFETCH  ACCESS:    7060296  HIT:    6920734  MISS:     139562
L1D WRITEBACK ACCESS:          0  HIT:          0  MISS:          0
L1D PREFETCH  REQUESTED:    7205332  ISSUED:    7122535  USEFUL:      44856  USELESS:      94711
L1D AVERAGE MISS LATENCY: 33.6702 cycles
L1I TOTAL     ACCESS:   10373379  HIT:    9293127  MISS:    1080252
L1I LOAD      ACCESS:    8937971  HIT:    8887846  MISS:      50125
L1I RFO       ACCESS:          0  HIT:          0  MISS:          0
L1I PREFETCH  ACCESS:    1435408  HIT:     405281  MISS:    1030127
L1I WRITEBACK ACCESS:          0  HIT:          0  MISS:          0
L1I PREFETCH  REQUESTED:    1545963  ISSUED:    1545963  USEFUL:     610190  USELESS:     419915
L1I AVERAGE MISS LATENCY: 14.9031 cycles
L2C TOTAL     ACCESS:    2048202  HIT:    1923447  MISS:     124755
L2C LOAD      ACCESS:     136611  HIT:     102333  MISS:      34278
L2C RFO       ACCESS:     104230  HIT:      70111  MISS:      34119
L2C PREFETCH  ACCESS:    1668060  HIT:    1611782  MISS:      56278
L2C WRITEBACK ACCESS:     139301  HIT:     139221  MISS:         80
L2C PREFETCH  REQUESTED:     816488  ISSUED:     816321  USEFUL:       3966  USELESS:      52782
L2C AVERAGE MISS LATENCY: 65.322 cycles
LLC TOTAL     ACCESS:     262676  HIT:     228876  MISS:      33800
LLC LOAD      ACCESS:      34276  HIT:      26052  MISS:       8224
LLC RFO       ACCESS:      34119  HIT:      27722  MISS:       6397
LLC PREFETCH  ACCESS:     149357  HIT:     130440  MISS:      18917
LLC WRITEBACK ACCESS:      44924  HIT:      44662  MISS:        262
LLC PREFETCH  REQUESTED:          0  ISSUED:          0  USEFUL:       1170  USELESS:      16585
LLC AVERAGE MISS LATENCY: 179.317 cycles
Major fault: 0 Minor fault: 4156
CPU 0 L1D next line prefetcher final stats

DRAM Statistics
 CHANNEL 0
 RQ ROW_BUFFER_HIT:       4314  ROW_BUFFER_MISS:      29224
 DBUS_CONGESTED:      18169
 WQ ROW_BUFFER_HIT:       1371  ROW_BUFFER_MISS:      14061  FULL:          0

 AVG_CONGESTED_CYCLE: 4

CPU 0 Branch Prediction Accuracy: 94.7729% MPKI: 9.72684 Average ROB Occupancy at Mispredict: 54.7192

Branch types
NOT_BRANCH: 40695383 81.3908%
BRANCH_DIRECT_JUMP: 422107 0.844214%
BRANCH_INDIRECT: 65 0.00013%
BRANCH_CONDITIONAL: 8105005 16.21%
BRANCH_DIRECT_CALL: 374913 0.749826%
BRANCH_INDIRECT_CALL: 13657 0.027314%
BRANCH_RETURN: 388556 0.777112%
BRANCH_OTHER: 0 0%

