MANA initialize 
tds: 2 tdm: 4
size MANA SINGLE: 74 KB
size MANA NULTIPLE: 43 KB
size HOBPT: 5 KB
size SRQ: 0.0644531 KB
size SABs: 0.0402832 KB
size prefetch queue: 0.453125 KB
total: 122.558 KB
Initialize SIGNATURE TABLE
ST_SET: 1
ST_WAY: 256
ST_TAG_BIT: 16
ST_TAG_MASK: ffff

Initialize PATTERN TABLE
PT_SET: 512
PT_WAY: 4
SIG_DELTA_BIT: 7
C_SIG_BIT: 4
C_DELTA_BIT: 4

Initialize PREFETCH FILTER
FILTER_SET: 1024

*** ChampSim Multicore Out-of-Order Simulator ***

Warmup Instructions: 50000000
Simulation Instructions: 50000000
Number of CPUs: 1
LLC sets: 2048
LLC ways: 16
Off-chip DRAM Size: 4096 MB Channels: 1 Width: 64-bit Data Rate: 3200 MT/s

CPU 0 runs /home/ykhodke/ChampSim/dpc3_traces/600.perlbench_s-210B.champsimtrace.xz
CPU 0 L1D next line prefetcher
Heartbeat CPU 0 instructions: 10000000 cycles: 3913410 heartbeat IPC: 2.55532 cumulative IPC: 2.55532 (Simulation time: 0 hr 0 min 14 sec) 
Heartbeat CPU 0 instructions: 20000000 cycles: 7798228 heartbeat IPC: 2.57412 cumulative IPC: 2.56469 (Simulation time: 0 hr 0 min 29 sec) 
Heartbeat CPU 0 instructions: 30000002 cycles: 11686392 heartbeat IPC: 2.57191 cumulative IPC: 2.56709 (Simulation time: 0 hr 0 min 43 sec) 
Heartbeat CPU 0 instructions: 40000000 cycles: 15533192 heartbeat IPC: 2.59956 cumulative IPC: 2.57513 (Simulation time: 0 hr 0 min 58 sec) 
Heartbeat CPU 0 instructions: 50000003 cycles: 19428602 heartbeat IPC: 2.56712 cumulative IPC: 2.57353 (Simulation time: 0 hr 1 min 12 sec) 

Warmup complete CPU 0 instructions: 50000003 cycles: 19428602 (Simulation time: 0 hr 1 min 12 sec) 

Heartbeat CPU 0 instructions: 60000002 cycles: 26260128 heartbeat IPC: 1.4638 cumulative IPC: 1.4638 (Simulation time: 0 hr 1 min 26 sec) 
Heartbeat CPU 0 instructions: 70000000 cycles: 31027448 heartbeat IPC: 2.09761 cumulative IPC: 1.72431 (Simulation time: 0 hr 1 min 41 sec) 
Heartbeat CPU 0 instructions: 80000001 cycles: 36007423 heartbeat IPC: 2.00804 cumulative IPC: 1.80954 (Simulation time: 0 hr 1 min 55 sec) 
Heartbeat CPU 0 instructions: 90000002 cycles: 42804076 heartbeat IPC: 1.47131 cumulative IPC: 1.7112 (Simulation time: 0 hr 2 min 9 sec) 
Heartbeat CPU 0 instructions: 100000003 cycles: 49684362 heartbeat IPC: 1.45343 cumulative IPC: 1.65258 (Simulation time: 0 hr 2 min 23 sec) 
Finished CPU 0 instructions: 50000000 cycles: 30255760 cumulative IPC: 1.65258 (Simulation time: 0 hr 2 min 23 sec) 

ChampSim completed all CPUs

Region of Interest Statistics

CPU 0 cumulative IPC: 1.65258 instructions: 50000000 cycles: 30255760
L1D TOTAL     ACCESS:   24916005  HIT:   24908962  MISS:       7043
L1D LOAD      ACCESS:    7125289  HIT:    7122744  MISS:       2545
L1D RFO       ACCESS:   10824333  HIT:   10824083  MISS:        250
L1D PREFETCH  ACCESS:    6966383  HIT:    6962135  MISS:       4248
L1D WRITEBACK ACCESS:          0  HIT:          0  MISS:          0
L1D PREFETCH  REQUESTED:    7125544  ISSUED:    7085005  USEFUL:       2500  USELESS:       1740
L1D AVERAGE MISS LATENCY: 61.9185 cycles
L1I TOTAL     ACCESS:   16206698  HIT:   16205284  MISS:       1414
L1I LOAD      ACCESS:    7974630  HIT:    7974325  MISS:        305
L1I RFO       ACCESS:          0  HIT:          0  MISS:          0
L1I PREFETCH  ACCESS:    8232068  HIT:    8230959  MISS:       1109
L1I WRITEBACK ACCESS:          0  HIT:          0  MISS:          0
L1I PREFETCH  REQUESTED:    8680377  ISSUED:    8679589  USEFUL:        968  USELESS:        143
L1I AVERAGE MISS LATENCY: 16.3048 cycles
L2C TOTAL     ACCESS:      13314  HIT:      10866  MISS:       2448
L2C LOAD      ACCESS:       2651  HIT:       1445  MISS:       1206
L2C RFO       ACCESS:        250  HIT:         66  MISS:        184
L2C PREFETCH  ACCESS:       9789  HIT:       8731  MISS:       1058
L2C WRITEBACK ACCESS:        624  HIT:        624  MISS:          0
L2C PREFETCH  REQUESTED:       9127  ISSUED:       9127  USEFUL:         41  USELESS:        201
L2C AVERAGE MISS LATENCY: 138.89 cycles
LLC TOTAL     ACCESS:       4632  HIT:       1688  MISS:       2944
LLC LOAD      ACCESS:       1206  HIT:        283  MISS:        923
LLC RFO       ACCESS:        184  HIT:          2  MISS:        182
LLC PREFETCH  ACCESS:       3183  HIT:       1344  MISS:       1839
LLC WRITEBACK ACCESS:         59  HIT:         59  MISS:          0
LLC PREFETCH  REQUESTED:          0  ISSUED:          0  USEFUL:        281  USELESS:          0
LLC AVERAGE MISS LATENCY: 139.779 cycles
Major fault: 0 Minor fault: 700



Printing Logs
statHeadFound: 904093
statHeadMissing: 216681
statStreamBufferHit: 11148017
statPrefetchEntryFound: 5190100
statCompactorMatch: 9618957
statStreamTrackerLookup: 12268791
statRecord: 2649834
statGetPointer: 1120774
statEnqueuePrefetch: 16337192
statPrefetchQueueIsFull: 30
StreamBufferHitRate: 0.908648
Regions' size: 221
next_region_correct: 2530450
next_region_wrong: 119155
next_region_correct_prediction: 0.955029
statStreamBufferLookups: 122687910
statL1iLookups: 130697536
statCompactorLookups: 196300656
CPU 0 L1D next line prefetcher final stats

DRAM Statistics
 CHANNEL 0
 RQ ROW_BUFFER_HIT:       1165  ROW_BUFFER_MISS:       1779
 DBUS_CONGESTED:        998
 WQ ROW_BUFFER_HIT:          0  ROW_BUFFER_MISS:          0  FULL:          0

 AVG_CONGESTED_CYCLE: 4

CPU 0 Branch Prediction Accuracy: 99.3421% MPKI: 0.91044 Average ROB Occupancy at Mispredict: 180.591

Branch types
NOT_BRANCH: 43080723 86.1614%
BRANCH_DIRECT_JUMP: 1038017 2.07603%
BRANCH_INDIRECT: 413789 0.827578%
BRANCH_CONDITIONAL: 4872387 9.74477%
BRANCH_DIRECT_CALL: 285993 0.571986%
BRANCH_INDIRECT_CALL: 11392 0.022784%
BRANCH_RETURN: 297386 0.594772%
BRANCH_OTHER: 0 0%

