MANA initialize 
tds: 2 tdm: 4
size MANA SINGLE: 74 KB
size MANA NULTIPLE: 43 KB
size HOBPT: 5 KB
size SRQ: 0.0644531 KB
size SABs: 0.0402832 KB
size prefetch queue: 0.453125 KB
total: 122.558 KB
Initialize SIGNATURE TABLE
ST_SET: 1
ST_WAY: 256
ST_TAG_BIT: 16
ST_TAG_MASK: ffff

Initialize PATTERN TABLE
PT_SET: 512
PT_WAY: 4
SIG_DELTA_BIT: 7
C_SIG_BIT: 4
C_DELTA_BIT: 4

Initialize PREFETCH FILTER
FILTER_SET: 1024

*** ChampSim Multicore Out-of-Order Simulator ***

Warmup Instructions: 50000000
Simulation Instructions: 50000000
Number of CPUs: 1
LLC sets: 2048
LLC ways: 16
Off-chip DRAM Size: 4096 MB Channels: 1 Width: 64-bit Data Rate: 3200 MT/s

CPU 0 runs /home/ykhodke/ChampSim/dpc3_traces/605.mcf_s-665B.champsimtrace.xz
CPU 0 L1D next line prefetcher
Heartbeat CPU 0 instructions: 10000000 cycles: 4106184 heartbeat IPC: 2.43535 cumulative IPC: 2.43535 (Simulation time: 0 hr 0 min 16 sec) 
Heartbeat CPU 0 instructions: 20000000 cycles: 8221106 heartbeat IPC: 2.43018 cumulative IPC: 2.43276 (Simulation time: 0 hr 0 min 32 sec) 
Heartbeat CPU 0 instructions: 30000002 cycles: 12321353 heartbeat IPC: 2.43888 cumulative IPC: 2.4348 (Simulation time: 0 hr 0 min 48 sec) 
Heartbeat CPU 0 instructions: 40000000 cycles: 16424603 heartbeat IPC: 2.43709 cumulative IPC: 2.43537 (Simulation time: 0 hr 1 min 4 sec) 
Heartbeat CPU 0 instructions: 50000000 cycles: 20523390 heartbeat IPC: 2.43975 cumulative IPC: 2.43624 (Simulation time: 0 hr 1 min 21 sec) 

Warmup complete CPU 0 instructions: 50000004 cycles: 20523391 (Simulation time: 0 hr 1 min 21 sec) 

Heartbeat CPU 0 instructions: 60000003 cycles: 44563114 heartbeat IPC: 0.415978 cumulative IPC: 0.415978 (Simulation time: 0 hr 1 min 36 sec) 
Heartbeat CPU 0 instructions: 70000003 cycles: 68385003 heartbeat IPC: 0.419782 cumulative IPC: 0.417871 (Simulation time: 0 hr 1 min 50 sec) 
Heartbeat CPU 0 instructions: 80000001 cycles: 92444211 heartbeat IPC: 0.415641 cumulative IPC: 0.417125 (Simulation time: 0 hr 2 min 5 sec) 
Heartbeat CPU 0 instructions: 90000001 cycles: 116865376 heartbeat IPC: 0.409481 cumulative IPC: 0.415188 (Simulation time: 0 hr 2 min 20 sec) 
Heartbeat CPU 0 instructions: 100000000 cycles: 139615668 heartbeat IPC: 0.439555 cumulative IPC: 0.419842 (Simulation time: 0 hr 2 min 35 sec) 
Finished CPU 0 instructions: 50000000 cycles: 119092278 cumulative IPC: 0.419842 (Simulation time: 0 hr 2 min 35 sec) 

ChampSim completed all CPUs

Region of Interest Statistics

CPU 0 cumulative IPC: 0.419842 instructions: 50000000 cycles: 119092278
L1D TOTAL     ACCESS:   30411543  HIT:   27228792  MISS:    3182751
L1D LOAD      ACCESS:   12755880  HIT:   11150900  MISS:    1604980
L1D RFO       ACCESS:    5404342  HIT:    5206395  MISS:     197947
L1D PREFETCH  ACCESS:   12251321  HIT:   10871497  MISS:    1379824
L1D WRITEBACK ACCESS:          0  HIT:          0  MISS:          0
L1D PREFETCH  REQUESTED:   12901278  ISSUED:   12788695  USEFUL:     246300  USELESS:    1133535
L1D AVERAGE MISS LATENCY: 67.9868 cycles
L1I TOTAL     ACCESS:   28326801  HIT:   28326801  MISS:          0
L1I LOAD      ACCESS:    9391954  HIT:    9391954  MISS:          0
L1I RFO       ACCESS:          0  HIT:          0  MISS:          0
L1I PREFETCH  ACCESS:   18934847  HIT:   18934847  MISS:          0
L1I WRITEBACK ACCESS:          0  HIT:          0  MISS:          0
L1I PREFETCH  REQUESTED:   23068923  ISSUED:   23037218  USEFUL:          0  USELESS:          0
L1I AVERAGE MISS LATENCY: -nan cycles
L2C TOTAL     ACCESS:    3904844  HIT:    1793658  MISS:    2111186
L2C LOAD      ACCESS:    1410376  HIT:     533952  MISS:     876424
L2C RFO       ACCESS:     197884  HIT:      76995  MISS:     120889
L2C PREFETCH  ACCESS:    2011025  HIT:     897457  MISS:    1113568
L2C WRITEBACK ACCESS:     285559  HIT:     285254  MISS:        305
L2C PREFETCH  REQUESTED:    2349892  ISSUED:    2349892  USEFUL:      90695  USELESS:    1022471
L2C AVERAGE MISS LATENCY: 92.1594 cycles
LLC TOTAL     ACCESS:    2943914  HIT:    1973395  MISS:     970519
LLC LOAD      ACCESS:     876410  HIT:     586383  MISS:     290027
LLC RFO       ACCESS:     120888  HIT:     116857  MISS:       4031
LLC PREFETCH  ACCESS:    1769586  HIT:    1094440  MISS:     675146
LLC WRITEBACK ACCESS:     177030  HIT:     175715  MISS:       1315
LLC PREFETCH  REQUESTED:          0  ISSUED:          0  USEFUL:     103004  USELESS:     571981
LLC AVERAGE MISS LATENCY: 188.629 cycles
Major fault: 0 Minor fault: 15073



Printing Logs
statHeadFound: 4171739
statHeadMissing: 425189
statStreamBufferHit: 10971639
statPrefetchEntryFound: 14315751
statCompactorMatch: 14927089
statStreamTrackerLookup: 15568567
statRecord: 641478
statGetPointer: 4596928
statEnqueuePrefetch: 45919785
statPrefetchQueueIsFull: 7609
StreamBufferHitRate: 0.70473
Regions' size: 35
next_region_correct: 496483
next_region_wrong: 144952
next_region_correct_prediction: 0.774019
statStreamBufferLookups: 155685670
statL1iLookups: 367358280
statCompactorLookups: 249097072
CPU 0 L1D next line prefetcher final stats

DRAM Statistics
 CHANNEL 0
 RQ ROW_BUFFER_HIT:     135943  ROW_BUFFER_MISS:     833213
 DBUS_CONGESTED:     330914
 WQ ROW_BUFFER_HIT:       5092  ROW_BUFFER_MISS:      10986  FULL:          0

 AVG_CONGESTED_CYCLE: 5

CPU 0 Branch Prediction Accuracy: 93.133% MPKI: 17.08 Average ROB Occupancy at Mispredict: 26.679

Branch types
NOT_BRANCH: 37563287 75.1266%
BRANCH_DIRECT_JUMP: 1317761 2.63552%
BRANCH_INDIRECT: 0 0%
BRANCH_CONDITIONAL: 8419917 16.8398%
BRANCH_DIRECT_CALL: 1274782 2.54956%
BRANCH_INDIRECT_CALL: 74550 0.1491%
BRANCH_RETURN: 1349334 2.69867%
BRANCH_OTHER: 0 0%

