MANA initialize 
tds: 2 tdm: 4
size MANA SINGLE: 74 KB
size MANA NULTIPLE: 43 KB
size HOBPT: 5 KB
size SRQ: 0.0644531 KB
size SABs: 0.0402832 KB
size prefetch queue: 0.453125 KB
total: 122.558 KB
Initialize SIGNATURE TABLE
ST_SET: 1
ST_WAY: 256
ST_TAG_BIT: 16
ST_TAG_MASK: ffff

Initialize PATTERN TABLE
PT_SET: 512
PT_WAY: 4
SIG_DELTA_BIT: 7
C_SIG_BIT: 4
C_DELTA_BIT: 4

Initialize PREFETCH FILTER
FILTER_SET: 1024

*** ChampSim Multicore Out-of-Order Simulator ***

Warmup Instructions: 50000000
Simulation Instructions: 50000000
Number of CPUs: 1
LLC sets: 2048
LLC ways: 16
Off-chip DRAM Size: 4096 MB Channels: 1 Width: 64-bit Data Rate: 3200 MT/s

CPU 0 runs /home/ykhodke/ChampSim/dpc3_traces/607.cactuBSSN_s-2421B.champsimtrace.xz
CPU 0 L1D next line prefetcher
Heartbeat CPU 0 instructions: 10000002 cycles: 4829811 heartbeat IPC: 2.07047 cumulative IPC: 2.07047 (Simulation time: 0 hr 0 min 17 sec) 
Heartbeat CPU 0 instructions: 20000001 cycles: 9656615 heartbeat IPC: 2.07176 cumulative IPC: 2.07112 (Simulation time: 0 hr 0 min 34 sec) 
Heartbeat CPU 0 instructions: 30000002 cycles: 14485632 heartbeat IPC: 2.07082 cumulative IPC: 2.07102 (Simulation time: 0 hr 0 min 51 sec) 
Heartbeat CPU 0 instructions: 40000003 cycles: 19314227 heartbeat IPC: 2.071 cumulative IPC: 2.07101 (Simulation time: 0 hr 1 min 8 sec) 
Heartbeat CPU 0 instructions: 50000000 cycles: 24143741 heartbeat IPC: 2.0706 cumulative IPC: 2.07093 (Simulation time: 0 hr 1 min 26 sec) 

Warmup complete CPU 0 instructions: 50000004 cycles: 24143742 (Simulation time: 0 hr 1 min 26 sec) 

Heartbeat CPU 0 instructions: 60000000 cycles: 29663592 heartbeat IPC: 1.81164 cumulative IPC: 1.81164 (Simulation time: 0 hr 1 min 42 sec) 
Heartbeat CPU 0 instructions: 70000003 cycles: 34700856 heartbeat IPC: 1.98521 cumulative IPC: 1.89446 (Simulation time: 0 hr 1 min 58 sec) 
Heartbeat CPU 0 instructions: 80000001 cycles: 39740443 heartbeat IPC: 1.98429 cumulative IPC: 1.92348 (Simulation time: 0 hr 2 min 14 sec) 
Heartbeat CPU 0 instructions: 90000000 cycles: 44794158 heartbeat IPC: 1.97874 cumulative IPC: 1.93701 (Simulation time: 0 hr 2 min 30 sec) 
Heartbeat CPU 0 instructions: 100000002 cycles: 49829565 heartbeat IPC: 1.98594 cumulative IPC: 1.9466 (Simulation time: 0 hr 2 min 46 sec) 
Finished CPU 0 instructions: 50000002 cycles: 25685824 cumulative IPC: 1.9466 (Simulation time: 0 hr 2 min 46 sec) 

ChampSim completed all CPUs

Region of Interest Statistics

CPU 0 cumulative IPC: 1.9466 instructions: 50000002 cycles: 25685824
L1D TOTAL     ACCESS:   21061990  HIT:   11659825  MISS:    9402165
L1D LOAD      ACCESS:    8743327  HIT:    3406661  MISS:    5336666
L1D RFO       ACCESS:    5575969  HIT:    5164127  MISS:     411842
L1D PREFETCH  ACCESS:    6742694  HIT:    3089037  MISS:    3653657
L1D WRITEBACK ACCESS:          0  HIT:          0  MISS:          0
L1D PREFETCH  REQUESTED:    8857397  ISSUED:    7029074  USEFUL:      26482  USELESS:    3627218
L1D AVERAGE MISS LATENCY: 22.1479 cycles
L1I TOTAL     ACCESS:   11481958  HIT:   11432610  MISS:      49348
L1I LOAD      ACCESS:    7111493  HIT:    7109986  MISS:       1507
L1I RFO       ACCESS:          0  HIT:          0  MISS:          0
L1I PREFETCH  ACCESS:    4370465  HIT:    4322624  MISS:      47841
L1I WRITEBACK ACCESS:          0  HIT:          0  MISS:          0
L1I PREFETCH  REQUESTED:    4378707  ISSUED:    4377407  USEFUL:      47824  USELESS:         11
L1I AVERAGE MISS LATENCY: 17.3273 cycles
L2C TOTAL     ACCESS:   12868333  HIT:   12389219  MISS:     479114
L2C LOAD      ACCESS:    5235097  HIT:    5222978  MISS:      12119
L2C RFO       ACCESS:     409544  HIT:     408262  MISS:       1282
L2C PREFETCH  ACCESS:    6747236  HIT:    6281527  MISS:     465709
L2C WRITEBACK ACCESS:     476456  HIT:     476452  MISS:          4
L2C PREFETCH  REQUESTED:    9809737  ISSUED:    8029076  USEFUL:     461504  USELESS:       4185
L2C AVERAGE MISS LATENCY: 86.7655 cycles
LLC TOTAL     ACCESS:    1508901  HIT:    1130085  MISS:     378816
LLC LOAD      ACCESS:      12009  HIT:       4423  MISS:       7586
LLC RFO       ACCESS:       1262  HIT:        160  MISS:       1102
LLC PREFETCH  ACCESS:    1448305  HIT:    1078233  MISS:     370072
LLC WRITEBACK ACCESS:      47325  HIT:      47269  MISS:         56
LLC PREFETCH  REQUESTED:          0  ISSUED:          0  USEFUL:       2525  USELESS:     360988
LLC AVERAGE MISS LATENCY: 353.716 cycles
Major fault: 0 Minor fault: 8510



Printing Logs
statHeadFound: 64473
statHeadMissing: 53235
statStreamBufferHit: 9090959
statPrefetchEntryFound: 1263764
statCompactorMatch: 8115299
statStreamTrackerLookup: 9208667
statRecord: 1093368
statGetPointer: 117708
statEnqueuePrefetch: 10073723
statPrefetchQueueIsFull: 0
StreamBufferHitRate: 0.987218
Regions' size: 300
next_region_correct: 1051732
next_region_wrong: 41328
next_region_correct_prediction: 0.962191
statStreamBufferLookups: 92086670
statL1iLookups: 80589784
statCompactorLookups: 147338672
CPU 0 L1D next line prefetcher final stats

DRAM Statistics
 CHANNEL 0
 RQ ROW_BUFFER_HIT:     202469  ROW_BUFFER_MISS:     176291
 DBUS_CONGESTED:      81065
 WQ ROW_BUFFER_HIT:      21897  ROW_BUFFER_MISS:      27430  FULL:          0

 AVG_CONGESTED_CYCLE: 5

CPU 0 Branch Prediction Accuracy: 98.9708% MPKI: 0.02072 Average ROB Occupancy at Mispredict: 73.1313

Branch types
NOT_BRANCH: 49899106 99.7982%
BRANCH_DIRECT_JUMP: 16920 0.03384%
BRANCH_INDIRECT: 14629 0.029258%
BRANCH_CONDITIONAL: 57073 0.114146%
BRANCH_DIRECT_CALL: 6013 0.012026%
BRANCH_INDIRECT_CALL: 3 6e-06%
BRANCH_RETURN: 6018 0.012036%
BRANCH_OTHER: 0 0%

