MANA initialize 
tds: 2 tdm: 4
size MANA SINGLE: 74 KB
size MANA NULTIPLE: 43 KB
size HOBPT: 5 KB
size SRQ: 0.0644531 KB
size SABs: 0.0402832 KB
size prefetch queue: 0.453125 KB
total: 122.558 KB
Initialize SIGNATURE TABLE
ST_SET: 1
ST_WAY: 256
ST_TAG_BIT: 16
ST_TAG_MASK: ffff

Initialize PATTERN TABLE
PT_SET: 512
PT_WAY: 4
SIG_DELTA_BIT: 7
C_SIG_BIT: 4
C_DELTA_BIT: 4

Initialize PREFETCH FILTER
FILTER_SET: 1024

*** ChampSim Multicore Out-of-Order Simulator ***

Warmup Instructions: 50000000
Simulation Instructions: 50000000
Number of CPUs: 1
LLC sets: 2048
LLC ways: 16
Off-chip DRAM Size: 4096 MB Channels: 1 Width: 64-bit Data Rate: 3200 MT/s

CPU 0 runs /home/ykhodke/ChampSim/dpc3_traces/625.x264_s-18B.champsimtrace.xz
CPU 0 L1D next line prefetcher
Heartbeat CPU 0 instructions: 10000001 cycles: 3383000 heartbeat IPC: 2.95596 cumulative IPC: 2.95596 (Simulation time: 0 hr 0 min 13 sec) 
Heartbeat CPU 0 instructions: 20000000 cycles: 6779374 heartbeat IPC: 2.94432 cumulative IPC: 2.95012 (Simulation time: 0 hr 0 min 25 sec) 
Heartbeat CPU 0 instructions: 30000000 cycles: 10161210 heartbeat IPC: 2.95697 cumulative IPC: 2.9524 (Simulation time: 0 hr 0 min 37 sec) 
Heartbeat CPU 0 instructions: 40000002 cycles: 13534744 heartbeat IPC: 2.96425 cumulative IPC: 2.95536 (Simulation time: 0 hr 0 min 49 sec) 
Heartbeat CPU 0 instructions: 50000003 cycles: 16903076 heartbeat IPC: 2.96883 cumulative IPC: 2.95804 (Simulation time: 0 hr 1 min 1 sec) 

Warmup complete CPU 0 instructions: 50000003 cycles: 16903076 (Simulation time: 0 hr 1 min 1 sec) 

Heartbeat CPU 0 instructions: 60000001 cycles: 22510747 heartbeat IPC: 1.78327 cumulative IPC: 1.78327 (Simulation time: 0 hr 1 min 11 sec) 
Heartbeat CPU 0 instructions: 70000000 cycles: 28135344 heartbeat IPC: 1.7779 cumulative IPC: 1.78058 (Simulation time: 0 hr 1 min 20 sec) 
Heartbeat CPU 0 instructions: 80000000 cycles: 33765503 heartbeat IPC: 1.77615 cumulative IPC: 1.7791 (Simulation time: 0 hr 1 min 30 sec) 
Heartbeat CPU 0 instructions: 90000002 cycles: 39401372 heartbeat IPC: 1.77435 cumulative IPC: 1.77791 (Simulation time: 0 hr 1 min 39 sec) 
Heartbeat CPU 0 instructions: 100000001 cycles: 45035267 heartbeat IPC: 1.77497 cumulative IPC: 1.77732 (Simulation time: 0 hr 1 min 49 sec) 
Finished CPU 0 instructions: 50000002 cycles: 28132192 cumulative IPC: 1.77732 (Simulation time: 0 hr 1 min 49 sec) 

ChampSim completed all CPUs

Region of Interest Statistics

CPU 0 cumulative IPC: 1.77732 instructions: 50000002 cycles: 28132192
L1D TOTAL     ACCESS:   10998563  HIT:   10980745  MISS:      17818
L1D LOAD      ACCESS:    3913624  HIT:    3898224  MISS:      15400
L1D RFO       ACCESS:    3265011  HIT:    3264524  MISS:        487
L1D PREFETCH  ACCESS:    3819928  HIT:    3817997  MISS:       1931
L1D WRITEBACK ACCESS:          0  HIT:          0  MISS:          0
L1D PREFETCH  REQUESTED:    3918061  ISSUED:    3827160  USEFUL:        319  USELESS:       1618
L1D AVERAGE MISS LATENCY: 83.7412 cycles
L1I TOTAL     ACCESS:   12468941  HIT:   12468941  MISS:          0
L1I LOAD      ACCESS:    8054653  HIT:    8054653  MISS:          0
L1I RFO       ACCESS:          0  HIT:          0  MISS:          0
L1I PREFETCH  ACCESS:    4414288  HIT:    4414288  MISS:          0
L1I WRITEBACK ACCESS:          0  HIT:          0  MISS:          0
L1I PREFETCH  REQUESTED:    4484204  ISSUED:    4482421  USEFUL:          0  USELESS:          0
L1I AVERAGE MISS LATENCY: -nan cycles
L2C TOTAL     ACCESS:      29245  HIT:      14112  MISS:      15133
L2C LOAD      ACCESS:      15381  HIT:       3521  MISS:      11860
L2C RFO       ACCESS:        486  HIT:         28  MISS:        458
L2C PREFETCH  ACCESS:      12894  HIT:      10081  MISS:       2813
L2C WRITEBACK ACCESS:        484  HIT:        482  MISS:          2
L2C PREFETCH  REQUESTED:      44407  ISSUED:      44327  USEFUL:       1890  USELESS:        918
L2C AVERAGE MISS LATENCY: 86.0927 cycles
LLC TOTAL     ACCESS:      30875  HIT:      16216  MISS:      14659
LLC LOAD      ACCESS:      10302  HIT:       5728  MISS:       4574
LLC RFO       ACCESS:        458  HIT:         32  MISS:        426
LLC PREFETCH  ACCESS:      19657  HIT:       9998  MISS:       9659
LLC WRITEBACK ACCESS:        458  HIT:        458  MISS:          0
LLC PREFETCH  REQUESTED:          0  ISSUED:          0  USEFUL:       5363  USELESS:        637
LLC AVERAGE MISS LATENCY: 131.118 cycles
Major fault: 0 Minor fault: 676



Printing Logs
statHeadFound: 627810
statHeadMissing: 236420
statStreamBufferHit: 8064546
statPrefetchEntryFound: 2176543
statCompactorMatch: 8633481
statStreamTrackerLookup: 8928776
statRecord: 295295
statGetPointer: 864230
statEnqueuePrefetch: 8501806
statPrefetchQueueIsFull: 0
StreamBufferHitRate: 0.903208
Regions' size: 53
next_region_correct: 214231
next_region_wrong: 81003
next_region_correct_prediction: 0.725631
statStreamBufferLookups: 89287760
statL1iLookups: 68014448
statCompactorLookups: 142860416
CPU 0 L1D next line prefetcher final stats

DRAM Statistics
 CHANNEL 0
 RQ ROW_BUFFER_HIT:       7551  ROW_BUFFER_MISS:       7108
 DBUS_CONGESTED:       5318
 WQ ROW_BUFFER_HIT:          1  ROW_BUFFER_MISS:         14  FULL:          0

 AVG_CONGESTED_CYCLE: 6

CPU 0 Branch Prediction Accuracy: 99.695% MPKI: 0.12886 Average ROB Occupancy at Mispredict: 60.7596

Branch types
NOT_BRANCH: 47887571 95.7751%
BRANCH_DIRECT_JUMP: 36263 0.072526%
BRANCH_INDIRECT: 3236 0.006472%
BRANCH_CONDITIONAL: 1791513 3.58303%
BRANCH_DIRECT_CALL: 71355 0.14271%
BRANCH_INDIRECT_CALL: 69258 0.138516%
BRANCH_RETURN: 140613 0.281226%
BRANCH_OTHER: 0 0%

