MANA initialize 
tds: 2 tdm: 4
size MANA SINGLE: 74 KB
size MANA NULTIPLE: 43 KB
size HOBPT: 5 KB
size SRQ: 0.0644531 KB
size SABs: 0.0402832 KB
size prefetch queue: 0.453125 KB
total: 122.558 KB
Initialize SIGNATURE TABLE
ST_SET: 1
ST_WAY: 256
ST_TAG_BIT: 16
ST_TAG_MASK: ffff

Initialize PATTERN TABLE
PT_SET: 512
PT_WAY: 4
SIG_DELTA_BIT: 7
C_SIG_BIT: 4
C_DELTA_BIT: 4

Initialize PREFETCH FILTER
FILTER_SET: 1024

*** ChampSim Multicore Out-of-Order Simulator ***

Warmup Instructions: 50000000
Simulation Instructions: 50000000
Number of CPUs: 1
LLC sets: 2048
LLC ways: 16
Off-chip DRAM Size: 4096 MB Channels: 1 Width: 64-bit Data Rate: 3200 MT/s

CPU 0 runs /home/ykhodke/ChampSim/dpc3_traces/654.roms_s-842B.champsimtrace.xz
CPU 0 L1D next line prefetcher
Heartbeat CPU 0 instructions: 10000000 cycles: 2986201 heartbeat IPC: 3.34874 cumulative IPC: 3.34874 (Simulation time: 0 hr 0 min 12 sec) 
Heartbeat CPU 0 instructions: 20000003 cycles: 6015366 heartbeat IPC: 3.30124 cumulative IPC: 3.32482 (Simulation time: 0 hr 0 min 24 sec) 
Heartbeat CPU 0 instructions: 30000000 cycles: 8979329 heartbeat IPC: 3.37386 cumulative IPC: 3.34101 (Simulation time: 0 hr 0 min 36 sec) 
Heartbeat CPU 0 instructions: 40000000 cycles: 12016618 heartbeat IPC: 3.29241 cumulative IPC: 3.32872 (Simulation time: 0 hr 0 min 48 sec) 
Heartbeat CPU 0 instructions: 50000003 cycles: 15217510 heartbeat IPC: 3.12413 cumulative IPC: 3.28569 (Simulation time: 0 hr 1 min 1 sec) 

Warmup complete CPU 0 instructions: 50000003 cycles: 15217510 (Simulation time: 0 hr 1 min 1 sec) 

Heartbeat CPU 0 instructions: 60000000 cycles: 20883942 heartbeat IPC: 1.76478 cumulative IPC: 1.76478 (Simulation time: 0 hr 1 min 12 sec) 
Heartbeat CPU 0 instructions: 70000001 cycles: 26527055 heartbeat IPC: 1.77207 cumulative IPC: 1.76842 (Simulation time: 0 hr 1 min 23 sec) 
Heartbeat CPU 0 instructions: 80000001 cycles: 32191214 heartbeat IPC: 1.76549 cumulative IPC: 1.76744 (Simulation time: 0 hr 1 min 34 sec) 
Heartbeat CPU 0 instructions: 90000000 cycles: 37881487 heartbeat IPC: 1.75738 cumulative IPC: 1.76492 (Simulation time: 0 hr 1 min 45 sec) 
Heartbeat CPU 0 instructions: 100000002 cycles: 43481504 heartbeat IPC: 1.78571 cumulative IPC: 1.76904 (Simulation time: 0 hr 1 min 56 sec) 
Finished CPU 0 instructions: 50000000 cycles: 28264002 cumulative IPC: 1.76903 (Simulation time: 0 hr 1 min 56 sec) 

ChampSim completed all CPUs

Region of Interest Statistics

CPU 0 cumulative IPC: 1.76903 instructions: 50000000 cycles: 28264002
L1D TOTAL     ACCESS:   13246172  HIT:   13239245  MISS:       6927
L1D LOAD      ACCESS:    4790392  HIT:    4790210  MISS:        182
L1D RFO       ACCESS:    3672675  HIT:    3669910  MISS:       2765
L1D PREFETCH  ACCESS:    4783105  HIT:    4779125  MISS:       3980
L1D WRITEBACK ACCESS:          0  HIT:          0  MISS:          0
L1D PREFETCH  REQUESTED:    4790712  ISSUED:    4788952  USEFUL:       3848  USELESS:        110
L1D AVERAGE MISS LATENCY: 66.9313 cycles
L1I TOTAL     ACCESS:   15275853  HIT:   15275853  MISS:          0
L1I LOAD      ACCESS:    8612539  HIT:    8612539  MISS:          0
L1I RFO       ACCESS:          0  HIT:          0  MISS:          0
L1I PREFETCH  ACCESS:    6663314  HIT:    6663314  MISS:          0
L1I WRITEBACK ACCESS:          0  HIT:          0  MISS:          0
L1I PREFETCH  REQUESTED:    7062231  ISSUED:    7062223  USEFUL:          0  USELESS:          0
L1I AVERAGE MISS LATENCY: -nan cycles
L2C TOTAL     ACCESS:      12621  HIT:       5932  MISS:       6689
L2C LOAD      ACCESS:        168  HIT:         44  MISS:        124
L2C RFO       ACCESS:       2765  HIT:        134  MISS:       2631
L2C PREFETCH  ACCESS:       6913  HIT:       2979  MISS:       3934
L2C WRITEBACK ACCESS:       2775  HIT:       2775  MISS:          0
L2C PREFETCH  REQUESTED:      34457  ISSUED:      34426  USEFUL:          0  USELESS:       3050
L2C AVERAGE MISS LATENCY: 67.5445 cycles
LLC TOTAL     ACCESS:      39788  HIT:      32735  MISS:       7053
LLC LOAD      ACCESS:        124  HIT:          0  MISS:        124
LLC RFO       ACCESS:       2631  HIT:          6  MISS:       2625
LLC PREFETCH  ACCESS:      34468  HIT:      30164  MISS:       4304
LLC WRITEBACK ACCESS:       2565  HIT:       2565  MISS:          0
LLC PREFETCH  REQUESTED:          0  ISSUED:          0  USEFUL:          0  USELESS:          0
LLC AVERAGE MISS LATENCY: 87.3811 cycles
Major fault: 0 Minor fault: 442



Printing Logs
statHeadFound: 1167054
statHeadMissing: 521044
statStreamBufferHit: 9060434
statPrefetchEntryFound: 4434981
statCompactorMatch: 10112007
statStreamTrackerLookup: 10748532
statRecord: 636525
statGetPointer: 1688098
statEnqueuePrefetch: 14950244
statPrefetchQueueIsFull: 0
StreamBufferHitRate: 0.842946
Regions' size: 48
next_region_correct: 390862
next_region_wrong: 245607
next_region_correct_prediction: 0.61411
statStreamBufferLookups: 107485320
statL1iLookups: 119601952
statCompactorLookups: 171976512
CPU 0 L1D next line prefetcher final stats

DRAM Statistics
 CHANNEL 0
 RQ ROW_BUFFER_HIT:       6307  ROW_BUFFER_MISS:        746
 DBUS_CONGESTED:       1883
 WQ ROW_BUFFER_HIT:          0  ROW_BUFFER_MISS:          0  FULL:          0

 AVG_CONGESTED_CYCLE: 6

CPU 0 Branch Prediction Accuracy: 99.9355% MPKI: 0.10634 Average ROB Occupancy at Mispredict: 33.7147

Branch types
NOT_BRANCH: 41749893 83.4998%
BRANCH_DIRECT_JUMP: 819653 1.63931%
BRANCH_INDIRECT: 31348 0.062696%
BRANCH_CONDITIONAL: 6715519 13.431%
BRANCH_DIRECT_CALL: 341636 0.683272%
BRANCH_INDIRECT_CALL: 0 0%
BRANCH_RETURN: 341632 0.683264%
BRANCH_OTHER: 0 0%

