MANA initialize 
tds: 2 tdm: 4
size MANA SINGLE: 74 KB
size MANA NULTIPLE: 43 KB
size HOBPT: 5 KB
size SRQ: 0.0644531 KB
size SABs: 0.0402832 KB
size prefetch queue: 0.453125 KB
total: 122.558 KB
Initialize SIGNATURE TABLE
ST_SET: 1
ST_WAY: 256
ST_TAG_BIT: 16
ST_TAG_MASK: ffff

Initialize PATTERN TABLE
PT_SET: 512
PT_WAY: 4
SIG_DELTA_BIT: 7
C_SIG_BIT: 4
C_DELTA_BIT: 4

Initialize PREFETCH FILTER
FILTER_SET: 1024

*** ChampSim Multicore Out-of-Order Simulator ***

Warmup Instructions: 50000000
Simulation Instructions: 50000000
Number of CPUs: 1
LLC sets: 2048
LLC ways: 16
Off-chip DRAM Size: 4096 MB Channels: 1 Width: 64-bit Data Rate: 3200 MT/s

CPU 0 runs /home/ykhodke/ChampSim/dpc3_traces/client_008.champsimtrace.xz
CPU 0 L1D next line prefetcher
Heartbeat CPU 0 instructions: 10000001 cycles: 3752550 heartbeat IPC: 2.66485 cumulative IPC: 2.66485 (Simulation time: 0 hr 0 min 17 sec) 
Heartbeat CPU 0 instructions: 20000001 cycles: 7526667 heartbeat IPC: 2.64963 cumulative IPC: 2.65722 (Simulation time: 0 hr 0 min 34 sec) 
Heartbeat CPU 0 instructions: 30000000 cycles: 11252451 heartbeat IPC: 2.684 cumulative IPC: 2.66609 (Simulation time: 0 hr 0 min 51 sec) 
Heartbeat CPU 0 instructions: 40000002 cycles: 15044874 heartbeat IPC: 2.63684 cumulative IPC: 2.65871 (Simulation time: 0 hr 1 min 8 sec) 
Heartbeat CPU 0 instructions: 50000003 cycles: 18834782 heartbeat IPC: 2.63859 cumulative IPC: 2.65466 (Simulation time: 0 hr 1 min 24 sec) 

Warmup complete CPU 0 instructions: 50000003 cycles: 18834782 (Simulation time: 0 hr 1 min 24 sec) 

Heartbeat CPU 0 instructions: 60000000 cycles: 27002801 heartbeat IPC: 1.22429 cumulative IPC: 1.22429 (Simulation time: 0 hr 1 min 42 sec) 
Heartbeat CPU 0 instructions: 70000000 cycles: 34918559 heartbeat IPC: 1.2633 cumulative IPC: 1.24349 (Simulation time: 0 hr 2 min 0 sec) 
Heartbeat CPU 0 instructions: 80000000 cycles: 43961245 heartbeat IPC: 1.10587 cumulative IPC: 1.19396 (Simulation time: 0 hr 2 min 16 sec) 
Heartbeat CPU 0 instructions: 90000001 cycles: 51313818 heartbeat IPC: 1.36007 cumulative IPC: 1.23156 (Simulation time: 0 hr 2 min 30 sec) 
Heartbeat CPU 0 instructions: 100000001 cycles: 59358713 heartbeat IPC: 1.24302 cumulative IPC: 1.23384 (Simulation time: 0 hr 2 min 45 sec) 
Finished CPU 0 instructions: 50000002 cycles: 40523932 cumulative IPC: 1.23384 (Simulation time: 0 hr 2 min 45 sec) 

ChampSim completed all CPUs

Region of Interest Statistics

CPU 0 cumulative IPC: 1.23384 instructions: 50000002 cycles: 40523932
L1D TOTAL     ACCESS:   20502505  HIT:   18873853  MISS:    1628652
L1D LOAD      ACCESS:    8071252  HIT:    7271830  MISS:     799422
L1D RFO       ACCESS:    4816403  HIT:    4706933  MISS:     109470
L1D PREFETCH  ACCESS:    7614850  HIT:    6895090  MISS:     719760
L1D WRITEBACK ACCESS:          0  HIT:          0  MISS:          0
L1D PREFETCH  REQUESTED:    8140314  ISSUED:    7972173  USEFUL:     199822  USELESS:     519943
L1D AVERAGE MISS LATENCY: 32.6288 cycles
L1I TOTAL     ACCESS:   23085995  HIT:   22074281  MISS:    1011714
L1I LOAD      ACCESS:    9702036  HIT:    9508394  MISS:     193642
L1I RFO       ACCESS:          0  HIT:          0  MISS:          0
L1I PREFETCH  ACCESS:   13383959  HIT:   12565887  MISS:     818072
L1I WRITEBACK ACCESS:          0  HIT:          0  MISS:          0
L1I PREFETCH  REQUESTED:   16070110  ISSUED:   16037086  USEFUL:     575960  USELESS:     242160
L1I AVERAGE MISS LATENCY: 17.1078 cycles
L2C TOTAL     ACCESS:    3715317  HIT:    3268764  MISS:     446553
L2C LOAD      ACCESS:     890451  HIT:     724290  MISS:     166161
L2C RFO       ACCESS:     104283  HIT:      18334  MISS:      85949
L2C PREFETCH  ACCESS:    2538600  HIT:    2344574  MISS:     194026
L2C WRITEBACK ACCESS:     181983  HIT:     181566  MISS:        417
L2C PREFETCH  REQUESTED:    3022427  ISSUED:    3015889  USEFUL:      18903  USELESS:     176583
L2C AVERAGE MISS LATENCY: 77.3392 cycles
LLC TOTAL     ACCESS:    1402383  HIT:    1221580  MISS:     180803
LLC LOAD      ACCESS:     166050  HIT:     144803  MISS:      21247
LLC RFO       ACCESS:      85943  HIT:      16334  MISS:      69609
LLC PREFETCH  ACCESS:    1014744  HIT:     925152  MISS:      89592
LLC WRITEBACK ACCESS:     135646  HIT:     135291  MISS:        355
LLC PREFETCH  REQUESTED:          0  ISSUED:          0  USEFUL:      24661  USELESS:      72559
LLC AVERAGE MISS LATENCY: 168.149 cycles
Major fault: 0 Minor fault: 5367



Printing Logs
statHeadFound: 2778757
statHeadMissing: 1800460
statStreamBufferHit: 9481388
statPrefetchEntryFound: 10131958
statCompactorMatch: 11923678
statStreamTrackerLookup: 14060605
statRecord: 2136927
statGetPointer: 4579217
statEnqueuePrefetch: 29688795
statPrefetchQueueIsFull: 583
StreamBufferHitRate: 0.674323
Regions' size: 6981
next_region_correct: 1339837
next_region_wrong: 790101
next_region_correct_prediction: 0.62905
statStreamBufferLookups: 140606050
statL1iLookups: 237510360
statCompactorLookups: 224969680
CPU 0 L1D next line prefetcher final stats

DRAM Statistics
 CHANNEL 0
 RQ ROW_BUFFER_HIT:      52460  ROW_BUFFER_MISS:     127967
 DBUS_CONGESTED:      99046
 WQ ROW_BUFFER_HIT:      23979  ROW_BUFFER_MISS:      66272  FULL:          0

 AVG_CONGESTED_CYCLE: 6

CPU 0 Branch Prediction Accuracy: 98.6482% MPKI: 3.1551 Average ROB Occupancy at Mispredict: 96.3074

Branch types
NOT_BRANCH: 38329598 76.6592%
BRANCH_DIRECT_JUMP: 510116 1.02023%
BRANCH_INDIRECT: 225730 0.45146%
BRANCH_CONDITIONAL: 8366762 16.7335%
BRANCH_DIRECT_CALL: 600748 1.2015%
BRANCH_INDIRECT_CALL: 682990 1.36598%
BRANCH_RETURN: 1283974 2.56795%
BRANCH_OTHER: 0 0%

