MANA initialize 
tds: 2 tdm: 4
size MANA SINGLE: 74 KB
size MANA NULTIPLE: 43 KB
size HOBPT: 5 KB
size SRQ: 0.0644531 KB
size SABs: 0.0402832 KB
size prefetch queue: 0.453125 KB
total: 122.558 KB
Initialize SIGNATURE TABLE
ST_SET: 1
ST_WAY: 256
ST_TAG_BIT: 16
ST_TAG_MASK: ffff

Initialize PATTERN TABLE
PT_SET: 512
PT_WAY: 4
SIG_DELTA_BIT: 7
C_SIG_BIT: 4
C_DELTA_BIT: 4

Initialize PREFETCH FILTER
FILTER_SET: 1024

*** ChampSim Multicore Out-of-Order Simulator ***

Warmup Instructions: 50000000
Simulation Instructions: 50000000
Number of CPUs: 1
LLC sets: 2048
LLC ways: 16
Off-chip DRAM Size: 4096 MB Channels: 1 Width: 64-bit Data Rate: 3200 MT/s

CPU 0 runs /home/ykhodke/ChampSim/dpc3_traces/client_004.champsimtrace.xz
CPU 0 L1D next line prefetcher
Heartbeat CPU 0 instructions: 10000000 cycles: 3592476 heartbeat IPC: 2.7836 cumulative IPC: 2.7836 (Simulation time: 0 hr 0 min 15 sec) 
Heartbeat CPU 0 instructions: 20000003 cycles: 7057041 heartbeat IPC: 2.88637 cumulative IPC: 2.83405 (Simulation time: 0 hr 0 min 30 sec) 
Heartbeat CPU 0 instructions: 30000000 cycles: 10648014 heartbeat IPC: 2.78476 cumulative IPC: 2.81743 (Simulation time: 0 hr 0 min 45 sec) 
Heartbeat CPU 0 instructions: 40000003 cycles: 14328892 heartbeat IPC: 2.71674 cumulative IPC: 2.79156 (Simulation time: 0 hr 1 min 0 sec) 
Heartbeat CPU 0 instructions: 50000001 cycles: 17847073 heartbeat IPC: 2.84238 cumulative IPC: 2.80158 (Simulation time: 0 hr 1 min 16 sec) 

Warmup complete CPU 0 instructions: 50000001 cycles: 17847073 (Simulation time: 0 hr 1 min 16 sec) 

Heartbeat CPU 0 instructions: 60000002 cycles: 25737120 heartbeat IPC: 1.26742 cumulative IPC: 1.26742 (Simulation time: 0 hr 1 min 29 sec) 
Heartbeat CPU 0 instructions: 70000001 cycles: 33679825 heartbeat IPC: 1.25902 cumulative IPC: 1.2632 (Simulation time: 0 hr 1 min 44 sec) 
Heartbeat CPU 0 instructions: 80000002 cycles: 42541068 heartbeat IPC: 1.12851 cumulative IPC: 1.21487 (Simulation time: 0 hr 1 min 58 sec) 
Heartbeat CPU 0 instructions: 90000000 cycles: 50761069 heartbeat IPC: 1.21654 cumulative IPC: 1.21529 (Simulation time: 0 hr 2 min 12 sec) 
Heartbeat CPU 0 instructions: 100000001 cycles: 58752904 heartbeat IPC: 1.25128 cumulative IPC: 1.22232 (Simulation time: 0 hr 2 min 26 sec) 
Finished CPU 0 instructions: 50000000 cycles: 40905831 cumulative IPC: 1.22232 (Simulation time: 0 hr 2 min 26 sec) 

ChampSim completed all CPUs

Region of Interest Statistics

CPU 0 cumulative IPC: 1.22232 instructions: 50000000 cycles: 40905831
L1D TOTAL     ACCESS:   21970941  HIT:   21081972  MISS:     888969
L1D LOAD      ACCESS:    8726802  HIT:    8330962  MISS:     395840
L1D RFO       ACCESS:    4810757  HIT:    4689334  MISS:     121423
L1D PREFETCH  ACCESS:    8433382  HIT:    8061676  MISS:     371706
L1D WRITEBACK ACCESS:          0  HIT:          0  MISS:          0
L1D PREFETCH  REQUESTED:    8766314  ISSUED:    8606711  USEFUL:     133215  USELESS:     238499
L1D AVERAGE MISS LATENCY: 30.0832 cycles
L1I TOTAL     ACCESS:   22037405  HIT:   21210535  MISS:     826870
L1I LOAD      ACCESS:    9378489  HIT:    9194516  MISS:     183973
L1I RFO       ACCESS:          0  HIT:          0  MISS:          0
L1I PREFETCH  ACCESS:   12658916  HIT:   12016019  MISS:     642897
L1I WRITEBACK ACCESS:          0  HIT:          0  MISS:          0
L1I PREFETCH  REQUESTED:   14597746  ISSUED:   14555790  USEFUL:     392552  USELESS:     250341
L1I AVERAGE MISS LATENCY: 26.3752 cycles
L2C TOTAL     ACCESS:    2547056  HIT:    2237838  MISS:     309218
L2C LOAD      ACCESS:     518847  HIT:     439700  MISS:      79147
L2C RFO       ACCESS:     117358  HIT:      44953  MISS:      72405
L2C PREFETCH  ACCESS:    1688842  HIT:    1532119  MISS:     156723
L2C WRITEBACK ACCESS:     222009  HIT:     221066  MISS:        943
L2C PREFETCH  REQUESTED:    1710948  ISSUED:    1710538  USEFUL:      25779  USELESS:     129468
L2C AVERAGE MISS LATENCY: 83.185 cycles
LLC TOTAL     ACCESS:     755272  HIT:     613405  MISS:     141867
LLC LOAD      ACCESS:      79123  HIT:      55326  MISS:      23797
LLC RFO       ACCESS:      72405  HIT:      40608  MISS:      31797
LLC PREFETCH  ACCESS:     501874  HIT:     415947  MISS:      85927
LLC WRITEBACK ACCESS:     101870  HIT:     101524  MISS:        346
LLC PREFETCH  REQUESTED:          0  ISSUED:          0  USEFUL:      23246  USELESS:      62538
LLC AVERAGE MISS LATENCY: 179.939 cycles
Major fault: 0 Minor fault: 4040



Printing Logs
statHeadFound: 2750956
statHeadMissing: 1832315
statStreamBufferHit: 9892363
statPrefetchEntryFound: 9896749
statCompactorMatch: 12199113
statStreamTrackerLookup: 14475634
statRecord: 2276521
statGetPointer: 4583271
statEnqueuePrefetch: 26777518
statPrefetchQueueIsFull: 4339
StreamBufferHitRate: 0.68338
Regions' size: 12499
next_region_correct: 1375772
next_region_wrong: 888242
next_region_correct_prediction: 0.607669
statStreamBufferLookups: 144756340
statL1iLookups: 214220144
statCompactorLookups: 231610144
CPU 0 L1D next line prefetcher final stats

DRAM Statistics
 CHANNEL 0
 RQ ROW_BUFFER_HIT:      33513  ROW_BUFFER_MISS:     107997
 DBUS_CONGESTED:      68031
 WQ ROW_BUFFER_HIT:       9594  ROW_BUFFER_MISS:      37306  FULL:          0

 AVG_CONGESTED_CYCLE: 6

CPU 0 Branch Prediction Accuracy: 94.1242% MPKI: 11.6089 Average ROB Occupancy at Mispredict: 55

Branch types
NOT_BRANCH: 40121095 80.2422%
BRANCH_DIRECT_JUMP: 644555 1.28911%
BRANCH_INDIRECT: 201946 0.403892%
BRANCH_CONDITIONAL: 7003558 14.0071%
BRANCH_DIRECT_CALL: 564821 1.12964%
BRANCH_INDIRECT_CALL: 445012 0.890024%
BRANCH_RETURN: 1018716 2.03743%
BRANCH_OTHER: 0 0%

