MANA initialize 
tds: 2 tdm: 4
size MANA SINGLE: 74 KB
size MANA NULTIPLE: 43 KB
size HOBPT: 5 KB
size SRQ: 0.0644531 KB
size SABs: 0.0402832 KB
size prefetch queue: 0.453125 KB
total: 122.558 KB
Initialize SIGNATURE TABLE
ST_SET: 1
ST_WAY: 256
ST_TAG_BIT: 16
ST_TAG_MASK: ffff

Initialize PATTERN TABLE
PT_SET: 512
PT_WAY: 4
SIG_DELTA_BIT: 7
C_SIG_BIT: 4
C_DELTA_BIT: 4

Initialize PREFETCH FILTER
FILTER_SET: 1024

*** ChampSim Multicore Out-of-Order Simulator ***

Warmup Instructions: 50000000
Simulation Instructions: 50000000
Number of CPUs: 1
LLC sets: 2048
LLC ways: 16
Off-chip DRAM Size: 4096 MB Channels: 1 Width: 64-bit Data Rate: 3200 MT/s

CPU 0 runs /home/ykhodke/ChampSim/dpc3_traces/server_022.champsimtrace.xz
CPU 0 L1D next line prefetcher
Heartbeat CPU 0 instructions: 10000002 cycles: 3623793 heartbeat IPC: 2.75954 cumulative IPC: 2.75954 (Simulation time: 0 hr 0 min 16 sec) 
Heartbeat CPU 0 instructions: 20000001 cycles: 7253782 heartbeat IPC: 2.75483 cumulative IPC: 2.75718 (Simulation time: 0 hr 0 min 32 sec) 
Heartbeat CPU 0 instructions: 30000003 cycles: 10877398 heartbeat IPC: 2.75967 cumulative IPC: 2.75801 (Simulation time: 0 hr 0 min 49 sec) 
Heartbeat CPU 0 instructions: 40000003 cycles: 14508719 heartbeat IPC: 2.75382 cumulative IPC: 2.75696 (Simulation time: 0 hr 1 min 5 sec) 
Heartbeat CPU 0 instructions: 50000002 cycles: 18129816 heartbeat IPC: 2.76159 cumulative IPC: 2.75789 (Simulation time: 0 hr 1 min 22 sec) 

Warmup complete CPU 0 instructions: 50000002 cycles: 18129816 (Simulation time: 0 hr 1 min 22 sec) 

Heartbeat CPU 0 instructions: 60000000 cycles: 35178532 heartbeat IPC: 0.586554 cumulative IPC: 0.586554 (Simulation time: 0 hr 1 min 44 sec) 
Heartbeat CPU 0 instructions: 70000001 cycles: 52455844 heartbeat IPC: 0.578794 cumulative IPC: 0.582648 (Simulation time: 0 hr 2 min 6 sec) 
Heartbeat CPU 0 instructions: 80000001 cycles: 69429314 heartbeat IPC: 0.589155 cumulative IPC: 0.584801 (Simulation time: 0 hr 2 min 28 sec) 
Heartbeat CPU 0 instructions: 90000003 cycles: 86756876 heartbeat IPC: 0.577115 cumulative IPC: 0.58286 (Simulation time: 0 hr 2 min 50 sec) 
Heartbeat CPU 0 instructions: 100000003 cycles: 103773786 heartbeat IPC: 0.587651 cumulative IPC: 0.583812 (Simulation time: 0 hr 3 min 12 sec) 
Finished CPU 0 instructions: 50000001 cycles: 85643970 cumulative IPC: 0.583812 (Simulation time: 0 hr 3 min 12 sec) 

ChampSim completed all CPUs

Region of Interest Statistics

CPU 0 cumulative IPC: 0.583812 instructions: 50000001 cycles: 85643970
L1D TOTAL     ACCESS:   18752231  HIT:   16541430  MISS:    2210801
L1D LOAD      ACCESS:    7072403  HIT:    6362175  MISS:     710228
L1D RFO       ACCESS:    5903315  HIT:    4923876  MISS:     979439
L1D PREFETCH  ACCESS:    5776513  HIT:    5255379  MISS:     521134
L1D WRITEBACK ACCESS:          0  HIT:          0  MISS:          0
L1D PREFETCH  REQUESTED:    7114062  ISSUED:    6906502  USEFUL:     199895  USELESS:     321244
L1D AVERAGE MISS LATENCY: 178.736 cycles
L1I TOTAL     ACCESS:   17885817  HIT:   15387936  MISS:    2497881
L1I LOAD      ACCESS:   10029463  HIT:    9691075  MISS:     338388
L1I RFO       ACCESS:          0  HIT:          0  MISS:          0
L1I PREFETCH  ACCESS:    7856354  HIT:    5696861  MISS:    2159493
L1I WRITEBACK ACCESS:          0  HIT:          0  MISS:          0
L1I PREFETCH  REQUESTED:    8520086  ISSUED:    8503192  USEFUL:    2081784  USELESS:      77709
L1I AVERAGE MISS LATENCY: 16.1827 cycles
L2C TOTAL     ACCESS:    6839003  HIT:    4966126  MISS:    1872877
L2C LOAD      ACCESS:     581248  HIT:     327676  MISS:     253572
L2C RFO       ACCESS:     979035  HIT:      21408  MISS:     957627
L2C PREFETCH  ACCESS:    4093545  HIT:    3434896  MISS:     658649
L2C WRITEBACK ACCESS:    1185175  HIT:    1182146  MISS:       3029
L2C PREFETCH  REQUESTED:    3912839  ISSUED:    3907824  USEFUL:      27130  USELESS:     631457
L2C AVERAGE MISS LATENCY: 217.5 cycles
LLC TOTAL     ACCESS:    4045142  HIT:    2650900  MISS:    1394242
LLC LOAD      ACCESS:     253415  HIT:     177788  MISS:      75627
LLC RFO       ACCESS:     957621  HIT:     139002  MISS:     818619
LLC PREFETCH  ACCESS:    1716369  HIT:    1218407  MISS:     497962
LLC WRITEBACK ACCESS:    1117737  HIT:    1115703  MISS:       2034
LLC PREFETCH  REQUESTED:          0  ISSUED:          0  USEFUL:      28073  USELESS:     470297
LLC AVERAGE MISS LATENCY: 287.851 cycles
Major fault: 0 Minor fault: 23562



Printing Logs
statHeadFound: 1005499
statHeadMissing: 2148246
statStreamBufferHit: 10423104
statPrefetchEntryFound: 5543936
statCompactorMatch: 10821681
statStreamTrackerLookup: 13576849
statRecord: 2755168
statGetPointer: 3153745
statEnqueuePrefetch: 16915228
statPrefetchQueueIsFull: 0
StreamBufferHitRate: 0.767712
Regions' size: 1405
next_region_correct: 2219129
next_region_wrong: 534626
next_region_correct_prediction: 0.805856
statStreamBufferLookups: 135768490
statL1iLookups: 135321824
statCompactorLookups: 217229584
CPU 0 L1D next line prefetcher final stats

DRAM Statistics
 CHANNEL 0
 RQ ROW_BUFFER_HIT:     398670  ROW_BUFFER_MISS:     993217
 DBUS_CONGESTED:    1429294
 WQ ROW_BUFFER_HIT:     273594  ROW_BUFFER_MISS:     629076  FULL:          0

 AVG_CONGESTED_CYCLE: 6

CPU 0 Branch Prediction Accuracy: 99.8317% MPKI: 0.27564 Average ROB Occupancy at Mispredict: 215.863

Branch types
NOT_BRANCH: 41811169 83.6223%
BRANCH_DIRECT_JUMP: 445742 0.891484%
BRANCH_INDIRECT: 48876 0.097752%
BRANCH_CONDITIONAL: 5859410 11.7188%
BRANCH_DIRECT_CALL: 758268 1.51654%
BRANCH_INDIRECT_CALL: 159103 0.318206%
BRANCH_RETURN: 917372 1.83474%
BRANCH_OTHER: 0 0%

