MANA initialize 
tds: 2 tdm: 4
size MANA SINGLE: 74 KB
size MANA NULTIPLE: 43 KB
size HOBPT: 5 KB
size SRQ: 0.0644531 KB
size SABs: 0.0402832 KB
size prefetch queue: 0.453125 KB
total: 122.558 KB
Initialize SIGNATURE TABLE
ST_SET: 1
ST_WAY: 256
ST_TAG_BIT: 16
ST_TAG_MASK: ffff

Initialize PATTERN TABLE
PT_SET: 512
PT_WAY: 4
SIG_DELTA_BIT: 7
C_SIG_BIT: 4
C_DELTA_BIT: 4

Initialize PREFETCH FILTER
FILTER_SET: 1024

*** ChampSim Multicore Out-of-Order Simulator ***

Warmup Instructions: 50000000
Simulation Instructions: 50000000
Number of CPUs: 1
LLC sets: 2048
LLC ways: 16
Off-chip DRAM Size: 4096 MB Channels: 1 Width: 64-bit Data Rate: 3200 MT/s

CPU 0 runs /home/ykhodke/ChampSim/dpc3_traces/server_031.champsimtrace.xz
CPU 0 L1D next line prefetcher
Heartbeat CPU 0 instructions: 10000003 cycles: 3523157 heartbeat IPC: 2.83836 cumulative IPC: 2.83836 (Simulation time: 0 hr 0 min 17 sec) 
Heartbeat CPU 0 instructions: 20000002 cycles: 7044766 heartbeat IPC: 2.83961 cumulative IPC: 2.83899 (Simulation time: 0 hr 0 min 34 sec) 
Heartbeat CPU 0 instructions: 30000002 cycles: 10566586 heartbeat IPC: 2.83944 cumulative IPC: 2.83914 (Simulation time: 0 hr 0 min 50 sec) 
Heartbeat CPU 0 instructions: 40000003 cycles: 14084139 heartbeat IPC: 2.84289 cumulative IPC: 2.84007 (Simulation time: 0 hr 1 min 7 sec) 
Heartbeat CPU 0 instructions: 50000000 cycles: 17603701 heartbeat IPC: 2.84126 cumulative IPC: 2.84031 (Simulation time: 0 hr 1 min 24 sec) 

Warmup complete CPU 0 instructions: 50000004 cycles: 17603702 (Simulation time: 0 hr 1 min 24 sec) 

Heartbeat CPU 0 instructions: 60000001 cycles: 25413042 heartbeat IPC: 1.28052 cumulative IPC: 1.28052 (Simulation time: 0 hr 1 min 41 sec) 
Heartbeat CPU 0 instructions: 70000002 cycles: 33283512 heartbeat IPC: 1.27057 cumulative IPC: 1.27553 (Simulation time: 0 hr 1 min 58 sec) 
*** Reached end of trace for Core: 0 Repeating trace: /home/ykhodke/ChampSim/dpc3_traces/server_031.champsimtrace.xz
Heartbeat CPU 0 instructions: 80000000 cycles: 40989189 heartbeat IPC: 1.29774 cumulative IPC: 1.28285 (Simulation time: 0 hr 2 min 15 sec) 
Heartbeat CPU 0 instructions: 90000003 cycles: 48744851 heartbeat IPC: 1.28938 cumulative IPC: 1.28447 (Simulation time: 0 hr 2 min 32 sec) 
Heartbeat CPU 0 instructions: 100000000 cycles: 56461521 heartbeat IPC: 1.2959 cumulative IPC: 1.28674 (Simulation time: 0 hr 2 min 49 sec) 
Finished CPU 0 instructions: 50000000 cycles: 38857824 cumulative IPC: 1.28674 (Simulation time: 0 hr 2 min 49 sec) 

ChampSim completed all CPUs

Region of Interest Statistics

CPU 0 cumulative IPC: 1.28674 instructions: 50000000 cycles: 38857824
L1D TOTAL     ACCESS:   19841555  HIT:   17937059  MISS:    1904496
L1D LOAD      ACCESS:    6923517  HIT:    6051685  MISS:     871832
L1D RFO       ACCESS:    6329307  HIT:    6037745  MISS:     291562
L1D PREFETCH  ACCESS:    6588731  HIT:    5847629  MISS:     741102
L1D WRITEBACK ACCESS:          0  HIT:          0  MISS:          0
L1D PREFETCH  REQUESTED:    6985966  ISSUED:    6884229  USEFUL:     175519  USELESS:     565587
L1D AVERAGE MISS LATENCY: 22.8419 cycles
L1I TOTAL     ACCESS:   19267543  HIT:   15529829  MISS:    3737714
L1I LOAD      ACCESS:    9443921  HIT:    8638349  MISS:     805572
L1I RFO       ACCESS:          0  HIT:          0  MISS:          0
L1I PREFETCH  ACCESS:    9823622  HIT:    6891480  MISS:    2932142
L1I WRITEBACK ACCESS:          0  HIT:          0  MISS:          0
L1I PREFETCH  REQUESTED:   11117535  ISSUED:   11104849  USEFUL:    2255186  USELESS:     676930
L1I AVERAGE MISS LATENCY: 15.3368 cycles
L2C TOTAL     ACCESS:    7919537  HIT:    7316963  MISS:     602574
L2C LOAD      ACCESS:    1222987  HIT:    1070260  MISS:     152727
L2C RFO       ACCESS:     289698  HIT:     236821  MISS:      52877
L2C PREFETCH  ACCESS:    5790267  HIT:    5395233  MISS:     395034
L2C WRITEBACK ACCESS:     616585  HIT:     614649  MISS:       1936
L2C PREFETCH  REQUESTED:    7117178  ISSUED:    7075533  USEFUL:      16823  USELESS:     377431
L2C AVERAGE MISS LATENCY: 44.9443 cycles
LLC TOTAL     ACCESS:    3109318  HIT:    3013237  MISS:      96081
LLC LOAD      ACCESS:     152700  HIT:     133325  MISS:      19375
LLC RFO       ACCESS:      52875  HIT:      48550  MISS:       4325
LLC PREFETCH  ACCESS:    2807094  HIT:    2735425  MISS:      71669
LLC WRITEBACK ACCESS:      96649  HIT:      95937  MISS:        712
LLC PREFETCH  REQUESTED:          0  ISSUED:          0  USEFUL:       3120  USELESS:      66912
LLC AVERAGE MISS LATENCY: 165.944 cycles
Major fault: 0 Minor fault: 6112



Printing Logs
statHeadFound: 1787354
statHeadMissing: 1824429
statStreamBufferHit: 10772667
statPrefetchEntryFound: 8088115
statCompactorMatch: 10974764
statStreamTrackerLookup: 14384450
statRecord: 3409686
statGetPointer: 3611783
statEnqueuePrefetch: 22169663
statPrefetchQueueIsFull: 16
StreamBufferHitRate: 0.748911
Regions' size: 2297
next_region_correct: 2341626
next_region_wrong: 1065755
next_region_correct_prediction: 0.687222
statStreamBufferLookups: 143844500
statL1iLookups: 177357304
statCompactorLookups: 230151200
CPU 0 L1D next line prefetcher final stats

DRAM Statistics
 CHANNEL 0
 RQ ROW_BUFFER_HIT:      29479  ROW_BUFFER_MISS:      65883
 DBUS_CONGESTED:      38891
 WQ ROW_BUFFER_HIT:       1037  ROW_BUFFER_MISS:       5362  FULL:          0

 AVG_CONGESTED_CYCLE: 5

CPU 0 Branch Prediction Accuracy: 99.6894% MPKI: 0.58048 Average ROB Occupancy at Mispredict: 132.844

Branch types
NOT_BRANCH: 40655615 81.3112%
BRANCH_DIRECT_JUMP: 546484 1.09297%
BRANCH_INDIRECT: 172433 0.344866%
BRANCH_CONDITIONAL: 6207578 12.4152%
BRANCH_DIRECT_CALL: 1018498 2.037%
BRANCH_INDIRECT_CALL: 190373 0.380746%
BRANCH_RETURN: 1208857 2.41771%
BRANCH_OTHER: 0 0%

