MANA initialize 
tds: 2 tdm: 4
size MANA SINGLE: 74 KB
size MANA NULTIPLE: 43 KB
size HOBPT: 5 KB
size SRQ: 0.0644531 KB
size SABs: 0.0402832 KB
size prefetch queue: 0.453125 KB
total: 122.558 KB
Initialize SIGNATURE TABLE
ST_SET: 1
ST_WAY: 256
ST_TAG_BIT: 16
ST_TAG_MASK: ffff

Initialize PATTERN TABLE
PT_SET: 512
PT_WAY: 4
SIG_DELTA_BIT: 7
C_SIG_BIT: 4
C_DELTA_BIT: 4

Initialize PREFETCH FILTER
FILTER_SET: 1024

*** ChampSim Multicore Out-of-Order Simulator ***

Warmup Instructions: 50000000
Simulation Instructions: 50000000
Number of CPUs: 1
LLC sets: 2048
LLC ways: 16
Off-chip DRAM Size: 4096 MB Channels: 1 Width: 64-bit Data Rate: 3200 MT/s

CPU 0 runs /home/ykhodke/ChampSim/dpc3_traces/server_009.champsimtrace.xz
CPU 0 L1D next line prefetcher
Heartbeat CPU 0 instructions: 10000003 cycles: 3197998 heartbeat IPC: 3.12696 cumulative IPC: 3.12696 (Simulation time: 0 hr 0 min 15 sec) 
Heartbeat CPU 0 instructions: 20000001 cycles: 6388058 heartbeat IPC: 3.13474 cumulative IPC: 3.13084 (Simulation time: 0 hr 0 min 29 sec) 
Heartbeat CPU 0 instructions: 30000001 cycles: 9593121 heartbeat IPC: 3.12006 cumulative IPC: 3.12724 (Simulation time: 0 hr 0 min 44 sec) 
Heartbeat CPU 0 instructions: 40000003 cycles: 12794826 heartbeat IPC: 3.12334 cumulative IPC: 3.12626 (Simulation time: 0 hr 0 min 59 sec) 
Heartbeat CPU 0 instructions: 50000000 cycles: 16053348 heartbeat IPC: 3.06888 cumulative IPC: 3.11462 (Simulation time: 0 hr 1 min 14 sec) 

Warmup complete CPU 0 instructions: 50000004 cycles: 16053349 (Simulation time: 0 hr 1 min 14 sec) 

Heartbeat CPU 0 instructions: 60000002 cycles: 31842678 heartbeat IPC: 0.633339 cumulative IPC: 0.633339 (Simulation time: 0 hr 1 min 33 sec) 
Heartbeat CPU 0 instructions: 70000003 cycles: 52922626 heartbeat IPC: 0.474385 cumulative IPC: 0.542457 (Simulation time: 0 hr 1 min 57 sec) 
Heartbeat CPU 0 instructions: 80000000 cycles: 60308006 heartbeat IPC: 1.35403 cumulative IPC: 0.677895 (Simulation time: 0 hr 2 min 11 sec) 
Heartbeat CPU 0 instructions: 90000001 cycles: 67814142 heartbeat IPC: 1.33224 cumulative IPC: 0.772786 (Simulation time: 0 hr 2 min 25 sec) 
Heartbeat CPU 0 instructions: 100000003 cycles: 75222059 heartbeat IPC: 1.34991 cumulative IPC: 0.845041 (Simulation time: 0 hr 2 min 40 sec) 
Finished CPU 0 instructions: 50000003 cycles: 59168711 cumulative IPC: 0.845041 (Simulation time: 0 hr 2 min 40 sec) 

ChampSim completed all CPUs

Region of Interest Statistics

CPU 0 cumulative IPC: 0.845041 instructions: 50000003 cycles: 59168711
L1D TOTAL     ACCESS:   21720842  HIT:   17141001  MISS:    4579841
L1D LOAD      ACCESS:    8674261  HIT:    6394893  MISS:    2279368
L1D RFO       ACCESS:    4583715  HIT:    4479051  MISS:     104664
L1D PREFETCH  ACCESS:    8462866  HIT:    6267057  MISS:    2195809
L1D WRITEBACK ACCESS:          0  HIT:          0  MISS:          0
L1D PREFETCH  REQUESTED:    8707652  ISSUED:    8610347  USEFUL:     107126  USELESS:    2088682
L1D AVERAGE MISS LATENCY: 20.3697 cycles
L1I TOTAL     ACCESS:   20601684  HIT:   19184132  MISS:    1417552
L1I LOAD      ACCESS:   10722842  HIT:   10454651  MISS:     268191
L1I RFO       ACCESS:          0  HIT:          0  MISS:          0
L1I PREFETCH  ACCESS:    9878842  HIT:    8729481  MISS:    1149361
L1I WRITEBACK ACCESS:          0  HIT:          0  MISS:          0
L1I PREFETCH  REQUESTED:   10828482  ISSUED:   10730745  USEFUL:     817896  USELESS:     331423
L1I AVERAGE MISS LATENCY: 30.2137 cycles
L2C TOTAL     ACCESS:    7747011  HIT:    6723862  MISS:    1023149
L2C LOAD      ACCESS:    2404443  HIT:    2156003  MISS:     248440
L2C RFO       ACCESS:     103684  HIT:      63373  MISS:      40311
L2C PREFETCH  ACCESS:    4981979  HIT:    4248605  MISS:     733374
L2C WRITEBACK ACCESS:     256905  HIT:     255881  MISS:       1024
L2C PREFETCH  REQUESTED:    7598504  ISSUED:    7595952  USEFUL:      35356  USELESS:     696808
L2C AVERAGE MISS LATENCY: 49.1146 cycles
LLC TOTAL     ACCESS:    2319296  HIT:    2177153  MISS:     142143
LLC LOAD      ACCESS:     248076  HIT:     226486  MISS:      21590
LLC RFO       ACCESS:      40307  HIT:      30122  MISS:      10185
LLC PREFETCH  ACCESS:    1896801  HIT:    1786737  MISS:     110064
LLC WRITEBACK ACCESS:     134112  HIT:     133808  MISS:        304
LLC PREFETCH  REQUESTED:          0  ISSUED:          0  USEFUL:      10991  USELESS:      96149
LLC AVERAGE MISS LATENCY: 173.166 cycles
Major fault: 0 Minor fault: 6414



Printing Logs
statHeadFound: 1566714
statHeadMissing: 976172
statStreamBufferHit: 11047217
statPrefetchEntryFound: 6927669
statCompactorMatch: 11157553
statStreamTrackerLookup: 13590103
statRecord: 2432550
statGetPointer: 2542886
statEnqueuePrefetch: 22201566
statPrefetchQueueIsFull: 1080
StreamBufferHitRate: 0.812887
Regions' size: 4637
next_region_correct: 1900325
next_region_wrong: 527580
next_region_correct_prediction: 0.782702
statStreamBufferLookups: 135901030
statL1iLookups: 177612528
statCompactorLookups: 217441648
CPU 0 L1D next line prefetcher final stats

DRAM Statistics
 CHANNEL 0
 RQ ROW_BUFFER_HIT:      25835  ROW_BUFFER_MISS:     115973
 DBUS_CONGESTED:      65924
 WQ ROW_BUFFER_HIT:       9065  ROW_BUFFER_MISS:      39488  FULL:          0

 AVG_CONGESTED_CYCLE: 5

CPU 0 Branch Prediction Accuracy: 99.4713% MPKI: 1.11484 Average ROB Occupancy at Mispredict: 108.114

Branch types
NOT_BRANCH: 39456615 78.9132%
BRANCH_DIRECT_JUMP: 445350 0.8907%
BRANCH_INDIRECT: 131149 0.262298%
BRANCH_CONDITIONAL: 8130196 16.2604%
BRANCH_DIRECT_CALL: 732485 1.46497%
BRANCH_INDIRECT_CALL: 172369 0.344738%
BRANCH_RETURN: 931558 1.86312%
BRANCH_OTHER: 0 0%

