MANA initialize 
tds: 2 tdm: 4
size MANA SINGLE: 74 KB
size MANA NULTIPLE: 43 KB
size HOBPT: 5 KB
size SRQ: 0.0644531 KB
size SABs: 0.0402832 KB
size prefetch queue: 0.453125 KB
total: 122.558 KB
Initialize SIGNATURE TABLE
ST_SET: 1
ST_WAY: 256
ST_TAG_BIT: 16
ST_TAG_MASK: ffff

Initialize PATTERN TABLE
PT_SET: 512
PT_WAY: 4
SIG_DELTA_BIT: 7
C_SIG_BIT: 4
C_DELTA_BIT: 4

Initialize PREFETCH FILTER
FILTER_SET: 1024

*** ChampSim Multicore Out-of-Order Simulator ***

Warmup Instructions: 50000000
Simulation Instructions: 50000000
Number of CPUs: 1
LLC sets: 2048
LLC ways: 16
Off-chip DRAM Size: 4096 MB Channels: 1 Width: 64-bit Data Rate: 3200 MT/s

CPU 0 runs /home/ykhodke/ChampSim/dpc3_traces/server_033.champsimtrace.xz
CPU 0 L1D next line prefetcher
Heartbeat CPU 0 instructions: 10000001 cycles: 3341420 heartbeat IPC: 2.99274 cumulative IPC: 2.99274 (Simulation time: 0 hr 0 min 16 sec) 
Heartbeat CPU 0 instructions: 20000002 cycles: 6680997 heartbeat IPC: 2.99439 cumulative IPC: 2.99357 (Simulation time: 0 hr 0 min 33 sec) 
Heartbeat CPU 0 instructions: 30000001 cycles: 10010953 heartbeat IPC: 3.00304 cumulative IPC: 2.99672 (Simulation time: 0 hr 0 min 49 sec) 
Heartbeat CPU 0 instructions: 40000000 cycles: 13349767 heartbeat IPC: 2.99508 cumulative IPC: 2.99631 (Simulation time: 0 hr 1 min 5 sec) 
Heartbeat CPU 0 instructions: 50000000 cycles: 16688069 heartbeat IPC: 2.99553 cumulative IPC: 2.99615 (Simulation time: 0 hr 1 min 22 sec) 

Warmup complete CPU 0 instructions: 50000004 cycles: 16688070 (Simulation time: 0 hr 1 min 22 sec) 

Heartbeat CPU 0 instructions: 60000000 cycles: 23451995 heartbeat IPC: 1.47843 cumulative IPC: 1.47843 (Simulation time: 0 hr 1 min 38 sec) 
Heartbeat CPU 0 instructions: 70000000 cycles: 30165501 heartbeat IPC: 1.48953 cumulative IPC: 1.48396 (Simulation time: 0 hr 1 min 55 sec) 
Heartbeat CPU 0 instructions: 80000000 cycles: 37662259 heartbeat IPC: 1.33391 cumulative IPC: 1.43033 (Simulation time: 0 hr 2 min 12 sec) 
Heartbeat CPU 0 instructions: 90000003 cycles: 44431094 heartbeat IPC: 1.47736 cumulative IPC: 1.4418 (Simulation time: 0 hr 2 min 29 sec) 
Heartbeat CPU 0 instructions: 100000003 cycles: 51141958 heartbeat IPC: 1.49012 cumulative IPC: 1.45122 (Simulation time: 0 hr 2 min 45 sec) 
Finished CPU 0 instructions: 50000003 cycles: 34453889 cumulative IPC: 1.45122 (Simulation time: 0 hr 2 min 45 sec) 

ChampSim completed all CPUs

Region of Interest Statistics

CPU 0 cumulative IPC: 1.45122 instructions: 50000003 cycles: 34453889
L1D TOTAL     ACCESS:   18511194  HIT:   17028802  MISS:    1482392
L1D LOAD      ACCESS:    6277512  HIT:    5595090  MISS:     682422
L1D RFO       ACCESS:    6166103  HIT:    6016120  MISS:     149983
L1D PREFETCH  ACCESS:    6067579  HIT:    5417592  MISS:     649987
L1D WRITEBACK ACCESS:          0  HIT:          0  MISS:          0
L1D PREFETCH  REQUESTED:    6321006  ISSUED:    6207893  USEFUL:     141687  USELESS:     508307
L1D AVERAGE MISS LATENCY: 23.9551 cycles
L1I TOTAL     ACCESS:   20769213  HIT:   16932947  MISS:    3836266
L1I LOAD      ACCESS:    9517634  HIT:    8852200  MISS:     665434
L1I RFO       ACCESS:          0  HIT:          0  MISS:          0
L1I PREFETCH  ACCESS:   11251579  HIT:    8080747  MISS:    3170832
L1I WRITEBACK ACCESS:          0  HIT:          0  MISS:          0
L1I PREFETCH  REQUESTED:   12727134  ISSUED:   12709020  USEFUL:    2691094  USELESS:     479746
L1I AVERAGE MISS LATENCY: 14.1551 cycles
L2C TOTAL     ACCESS:    7275801  HIT:    6940677  MISS:     335124
L2C LOAD      ACCESS:    1010660  HIT:     879006  MISS:     131654
L2C RFO       ACCESS:     148642  HIT:     125952  MISS:      22690
L2C PREFETCH  ACCESS:    5750014  HIT:    5571970  MISS:     178044
L2C WRITEBACK ACCESS:     366485  HIT:     363749  MISS:       2736
L2C PREFETCH  REQUESTED:    6229083  ISSUED:    6214581  USEFUL:      11491  USELESS:     165935
L2C AVERAGE MISS LATENCY: 47.9203 cycles
LLC TOTAL     ACCESS:    2004406  HIT:    1946965  MISS:      57441
LLC LOAD      ACCESS:     131599  HIT:     117846  MISS:      13753
LLC RFO       ACCESS:      22690  HIT:      19738  MISS:       2952
LLC PREFETCH  ACCESS:    1742484  HIT:    1702045  MISS:      40439
LLC WRITEBACK ACCESS:     107633  HIT:     107336  MISS:        297
LLC PREFETCH  REQUESTED:          0  ISSUED:          0  USEFUL:       6266  USELESS:      33263
LLC AVERAGE MISS LATENCY: 171.452 cycles
Major fault: 0 Minor fault: 2540



Printing Logs
statHeadFound: 1923892
statHeadMissing: 1888117
statStreamBufferHit: 11292183
statPrefetchEntryFound: 8804147
statCompactorMatch: 11656175
statStreamTrackerLookup: 15104192
statRecord: 3448017
statGetPointer: 3812009
statEnqueuePrefetch: 25384274
statPrefetchQueueIsFull: 1402
StreamBufferHitRate: 0.747619
Regions' size: 1540
next_region_correct: 2510294
next_region_wrong: 936175
next_region_correct_prediction: 0.728367
statStreamBufferLookups: 151041920
statL1iLookups: 203074192
statCompactorLookups: 241667072
CPU 0 L1D next line prefetcher final stats

DRAM Statistics
 CHANNEL 0
 RQ ROW_BUFFER_HIT:       9300  ROW_BUFFER_MISS:      47837
 DBUS_CONGESTED:      23678
 WQ ROW_BUFFER_HIT:       3395  ROW_BUFFER_MISS:      16344  FULL:          0

 AVG_CONGESTED_CYCLE: 5

CPU 0 Branch Prediction Accuracy: 99.9029% MPKI: 0.19006 Average ROB Occupancy at Mispredict: 186.809

Branch types
NOT_BRANCH: 40217087 80.4342%
BRANCH_DIRECT_JUMP: 774599 1.5492%
BRANCH_INDIRECT: 108806 0.217612%
BRANCH_CONDITIONAL: 6379327 12.7587%
BRANCH_DIRECT_CALL: 1048808 2.09762%
BRANCH_INDIRECT_CALL: 211109 0.422218%
BRANCH_RETURN: 1259924 2.51985%
BRANCH_OTHER: 0 0%

