MANA initialize 
tds: 2 tdm: 4
size MANA SINGLE: 74 KB
size MANA NULTIPLE: 43 KB
size HOBPT: 5 KB
size SRQ: 0.0644531 KB
size SABs: 0.0402832 KB
size prefetch queue: 0.453125 KB
total: 122.558 KB
Initialize SIGNATURE TABLE
ST_SET: 1
ST_WAY: 256
ST_TAG_BIT: 16
ST_TAG_MASK: ffff

Initialize PATTERN TABLE
PT_SET: 512
PT_WAY: 4
SIG_DELTA_BIT: 7
C_SIG_BIT: 4
C_DELTA_BIT: 4

Initialize PREFETCH FILTER
FILTER_SET: 1024

*** ChampSim Multicore Out-of-Order Simulator ***

Warmup Instructions: 50000000
Simulation Instructions: 50000000
Number of CPUs: 1
LLC sets: 2048
LLC ways: 16
Off-chip DRAM Size: 4096 MB Channels: 1 Width: 64-bit Data Rate: 3200 MT/s

CPU 0 runs /home/ykhodke/ChampSim/dpc3_traces/server_029.champsimtrace.xz
CPU 0 L1D next line prefetcher
Heartbeat CPU 0 instructions: 10000003 cycles: 3493684 heartbeat IPC: 2.86231 cumulative IPC: 2.86231 (Simulation time: 0 hr 0 min 16 sec) 
Heartbeat CPU 0 instructions: 20000002 cycles: 6987042 heartbeat IPC: 2.86257 cumulative IPC: 2.86244 (Simulation time: 0 hr 0 min 32 sec) 
Heartbeat CPU 0 instructions: 30000003 cycles: 10481737 heartbeat IPC: 2.86148 cumulative IPC: 2.86212 (Simulation time: 0 hr 0 min 48 sec) 
Heartbeat CPU 0 instructions: 40000000 cycles: 13984518 heartbeat IPC: 2.85487 cumulative IPC: 2.86031 (Simulation time: 0 hr 1 min 5 sec) 
Heartbeat CPU 0 instructions: 50000000 cycles: 17486207 heartbeat IPC: 2.85576 cumulative IPC: 2.8594 (Simulation time: 0 hr 1 min 21 sec) 

Warmup complete CPU 0 instructions: 50000004 cycles: 17486208 (Simulation time: 0 hr 1 min 21 sec) 

Heartbeat CPU 0 instructions: 60000000 cycles: 25334384 heartbeat IPC: 1.27418 cumulative IPC: 1.27418 (Simulation time: 0 hr 1 min 38 sec) 
Heartbeat CPU 0 instructions: 70000003 cycles: 33336300 heartbeat IPC: 1.2497 cumulative IPC: 1.26182 (Simulation time: 0 hr 1 min 55 sec) 
Heartbeat CPU 0 instructions: 80000001 cycles: 41149628 heartbeat IPC: 1.27986 cumulative IPC: 1.26778 (Simulation time: 0 hr 2 min 12 sec) 
*** Reached end of trace for Core: 0 Repeating trace: /home/ykhodke/ChampSim/dpc3_traces/server_029.champsimtrace.xz
Heartbeat CPU 0 instructions: 90000000 cycles: 48879464 heartbeat IPC: 1.29369 cumulative IPC: 1.27416 (Simulation time: 0 hr 2 min 29 sec) 
Heartbeat CPU 0 instructions: 100000000 cycles: 56624485 heartbeat IPC: 1.29115 cumulative IPC: 1.27752 (Simulation time: 0 hr 2 min 45 sec) 
Finished CPU 0 instructions: 50000000 cycles: 39138278 cumulative IPC: 1.27752 (Simulation time: 0 hr 2 min 45 sec) 

ChampSim completed all CPUs

Region of Interest Statistics

CPU 0 cumulative IPC: 1.27752 instructions: 50000000 cycles: 39138278
L1D TOTAL     ACCESS:   19411053  HIT:   17314332  MISS:    2096721
L1D LOAD      ACCESS:    6902639  HIT:    5839497  MISS:    1063142
L1D RFO       ACCESS:    6116197  HIT:    5830569  MISS:     285628
L1D PREFETCH  ACCESS:    6392217  HIT:    5644266  MISS:     747951
L1D WRITEBACK ACCESS:          0  HIT:          0  MISS:          0
L1D PREFETCH  REQUESTED:    6966329  ISSUED:    6865959  USEFUL:     177805  USELESS:     570136
L1D AVERAGE MISS LATENCY: 22.5905 cycles
L1I TOTAL     ACCESS:   18959517  HIT:   15362467  MISS:    3597050
L1I LOAD      ACCESS:    9543364  HIT:    8737261  MISS:     806103
L1I RFO       ACCESS:          0  HIT:          0  MISS:          0
L1I PREFETCH  ACCESS:    9416153  HIT:    6625206  MISS:    2790947
L1I WRITEBACK ACCESS:          0  HIT:          0  MISS:          0
L1I PREFETCH  REQUESTED:   10723433  ISSUED:   10712219  USEFUL:    2159606  USELESS:     631387
L1I AVERAGE MISS LATENCY: 16.3162 cycles
L2C TOTAL     ACCESS:    7971441  HIT:    7125569  MISS:     845872
L2C LOAD      ACCESS:    1316462  HIT:    1113357  MISS:     203105
L2C RFO       ACCESS:     283778  HIT:     206006  MISS:      77772
L2C PREFETCH  ACCESS:    5760777  HIT:    5202956  MISS:     557821
L2C WRITEBACK ACCESS:     610424  HIT:     603250  MISS:       7174
L2C PREFETCH  REQUESTED:    7424202  ISSUED:    7378043  USEFUL:      24132  USELESS:     532840
L2C AVERAGE MISS LATENCY: 40.7418 cycles
LLC TOTAL     ACCESS:    3529215  HIT:    3438243  MISS:      90972
LLC LOAD      ACCESS:     202927  HIT:     185070  MISS:      17857
LLC RFO       ACCESS:      77768  HIT:      73952  MISS:       3816
LLC PREFETCH  ACCESS:    3118552  HIT:    3050007  MISS:      68545
LLC WRITEBACK ACCESS:     129968  HIT:     129214  MISS:        754
LLC PREFETCH  REQUESTED:          0  ISSUED:          0  USEFUL:       3135  USELESS:      64515
LLC AVERAGE MISS LATENCY: 165.592 cycles
Major fault: 0 Minor fault: 5989



Printing Logs
statHeadFound: 1723925
statHeadMissing: 1786346
statStreamBufferHit: 10927700
statPrefetchEntryFound: 7821299
statCompactorMatch: 11122974
statStreamTrackerLookup: 14437971
statRecord: 3314997
statGetPointer: 3510271
statEnqueuePrefetch: 21391697
statPrefetchQueueIsFull: 114
StreamBufferHitRate: 0.756872
Regions' size: 2109
next_region_correct: 2282670
next_region_wrong: 1030210
next_region_correct_prediction: 0.689029
statStreamBufferLookups: 144379710
statL1iLookups: 171133576
statCompactorLookups: 231007536
CPU 0 L1D next line prefetcher final stats

DRAM Statistics
 CHANNEL 0
 RQ ROW_BUFFER_HIT:      29343  ROW_BUFFER_MISS:      60865
 DBUS_CONGESTED:      36292
 WQ ROW_BUFFER_HIT:        776  ROW_BUFFER_MISS:       4428  FULL:          0

 AVG_CONGESTED_CYCLE: 5

CPU 0 Branch Prediction Accuracy: 99.7245% MPKI: 0.51862 Average ROB Occupancy at Mispredict: 138.076

Branch types
NOT_BRANCH: 40586630 81.1733%
BRANCH_DIRECT_JUMP: 525211 1.05042%
BRANCH_INDIRECT: 166359 0.332718%
BRANCH_CONDITIONAL: 6373095 12.7462%
BRANCH_DIRECT_CALL: 989263 1.97853%
BRANCH_INDIRECT_CALL: 184984 0.369968%
BRANCH_RETURN: 1174250 2.3485%
BRANCH_OTHER: 0 0%

