MANA initialize 
tds: 2 tdm: 4
size MANA SINGLE: 74 KB
size MANA NULTIPLE: 43 KB
size HOBPT: 5 KB
size SRQ: 0.0644531 KB
size SABs: 0.0402832 KB
size prefetch queue: 0.453125 KB
total: 122.558 KB
Initialize SIGNATURE TABLE
ST_SET: 1
ST_WAY: 256
ST_TAG_BIT: 16
ST_TAG_MASK: ffff

Initialize PATTERN TABLE
PT_SET: 512
PT_WAY: 4
SIG_DELTA_BIT: 7
C_SIG_BIT: 4
C_DELTA_BIT: 4

Initialize PREFETCH FILTER
FILTER_SET: 1024

*** ChampSim Multicore Out-of-Order Simulator ***

Warmup Instructions: 50000000
Simulation Instructions: 50000000
Number of CPUs: 1
LLC sets: 2048
LLC ways: 16
Off-chip DRAM Size: 4096 MB Channels: 1 Width: 64-bit Data Rate: 3200 MT/s

CPU 0 runs /home/ykhodke/ChampSim/dpc3_traces/server_017.champsimtrace.xz
CPU 0 L1D next line prefetcher
Heartbeat CPU 0 instructions: 10000001 cycles: 3622756 heartbeat IPC: 2.76033 cumulative IPC: 2.76033 (Simulation time: 0 hr 0 min 16 sec) 
Heartbeat CPU 0 instructions: 20000000 cycles: 7243215 heartbeat IPC: 2.76208 cumulative IPC: 2.7612 (Simulation time: 0 hr 0 min 32 sec) 
Heartbeat CPU 0 instructions: 30000002 cycles: 10870481 heartbeat IPC: 2.7569 cumulative IPC: 2.75977 (Simulation time: 0 hr 0 min 48 sec) 
Heartbeat CPU 0 instructions: 40000000 cycles: 14492572 heartbeat IPC: 2.76084 cumulative IPC: 2.76003 (Simulation time: 0 hr 1 min 5 sec) 
Heartbeat CPU 0 instructions: 50000001 cycles: 18125688 heartbeat IPC: 2.75246 cumulative IPC: 2.75852 (Simulation time: 0 hr 1 min 21 sec) 

Warmup complete CPU 0 instructions: 50000001 cycles: 18125688 (Simulation time: 0 hr 1 min 21 sec) 

Heartbeat CPU 0 instructions: 60000002 cycles: 35703532 heartbeat IPC: 0.568898 cumulative IPC: 0.568898 (Simulation time: 0 hr 1 min 43 sec) 
Heartbeat CPU 0 instructions: 70000002 cycles: 53483748 heartbeat IPC: 0.562423 cumulative IPC: 0.565642 (Simulation time: 0 hr 2 min 5 sec) 
Heartbeat CPU 0 instructions: 80000000 cycles: 71033235 heartbeat IPC: 0.569817 cumulative IPC: 0.567027 (Simulation time: 0 hr 2 min 27 sec) 
Heartbeat CPU 0 instructions: 90000002 cycles: 94364073 heartbeat IPC: 0.428617 cumulative IPC: 0.52467 (Simulation time: 0 hr 2 min 49 sec) 
Heartbeat CPU 0 instructions: 100000003 cycles: 114476155 heartbeat IPC: 0.497214 cumulative IPC: 0.518939 (Simulation time: 0 hr 3 min 11 sec) 
Finished CPU 0 instructions: 50000002 cycles: 96350467 cumulative IPC: 0.518939 (Simulation time: 0 hr 3 min 11 sec) 

ChampSim completed all CPUs

Region of Interest Statistics

CPU 0 cumulative IPC: 0.518939 instructions: 50000002 cycles: 96350467
L1D TOTAL     ACCESS:   18422606  HIT:   16257003  MISS:    2165603
L1D LOAD      ACCESS:    7044380  HIT:    6298086  MISS:     746294
L1D RFO       ACCESS:    5524340  HIT:    4665259  MISS:     859081
L1D PREFETCH  ACCESS:    5853886  HIT:    5293658  MISS:     560228
L1D WRITEBACK ACCESS:          0  HIT:          0  MISS:          0
L1D PREFETCH  REQUESTED:    7081493  ISSUED:    6891075  USEFUL:     197811  USELESS:     362478
L1D AVERAGE MISS LATENCY: 173.37 cycles
L1I TOTAL     ACCESS:   16947759  HIT:   14727911  MISS:    2219848
L1I LOAD      ACCESS:    9804196  HIT:    9497770  MISS:     306426
L1I RFO       ACCESS:          0  HIT:          0  MISS:          0
L1I PREFETCH  ACCESS:    7143563  HIT:    5230141  MISS:    1913422
L1I WRITEBACK ACCESS:          0  HIT:          0  MISS:          0
L1I PREFETCH  REQUESTED:    7779165  ISSUED:    7759075  USEFUL:    1834083  USELESS:      79341
L1I AVERAGE MISS LATENCY: 16.6873 cycles
L2C TOTAL     ACCESS:    6408630  HIT:    4560698  MISS:    1847932
L2C LOAD      ACCESS:     639378  HIT:     304340  MISS:     335038
L2C RFO       ACCESS:     858727  HIT:      18581  MISS:     840146
L2C PREFETCH  ACCESS:    3787615  HIT:    3116480  MISS:     671135
L2C WRITEBACK ACCESS:    1122910  HIT:    1121297  MISS:       1613
L2C PREFETCH  REQUESTED:    3938987  ISSUED:    3934616  USEFUL:      28223  USELESS:     643538
L2C AVERAGE MISS LATENCY: 207.007 cycles
LLC TOTAL     ACCESS:    4114681  HIT:    2543090  MISS:    1571591
LLC LOAD      ACCESS:     334850  HIT:     177381  MISS:     157469
LLC RFO       ACCESS:     840142  HIT:     121883  MISS:     718259
LLC PREFETCH  ACCESS:    1879732  HIT:    1186030  MISS:     693702
LLC WRITEBACK ACCESS:    1059957  HIT:    1057796  MISS:       2161
LLC PREFETCH  REQUESTED:          0  ISSUED:          0  USEFUL:      49221  USELESS:     643420
LLC AVERAGE MISS LATENCY: 259.446 cycles
Major fault: 0 Minor fault: 24748



Printing Logs
statHeadFound: 987213
statHeadMissing: 1333123
statStreamBufferHit: 10895533
statPrefetchEntryFound: 5339583
statCompactorMatch: 10651891
statStreamTrackerLookup: 13215869
statRecord: 2563978
statGetPointer: 2320336
statEnqueuePrefetch: 16136384
statPrefetchQueueIsFull: 0
StreamBufferHitRate: 0.824428
Regions' size: 1291
next_region_correct: 2067436
next_region_wrong: 495243
next_region_correct_prediction: 0.806748
statStreamBufferLookups: 132158690
statL1iLookups: 129091072
statCompactorLookups: 211453904
CPU 0 L1D next line prefetcher final stats

DRAM Statistics
 CHANNEL 0
 RQ ROW_BUFFER_HIT:     378540  ROW_BUFFER_MISS:    1190673
 DBUS_CONGESTED:    1499837
 WQ ROW_BUFFER_HIT:     253797  ROW_BUFFER_MISS:     621971  FULL:          0

 AVG_CONGESTED_CYCLE: 6

CPU 0 Branch Prediction Accuracy: 99.2833% MPKI: 1.20568 Average ROB Occupancy at Mispredict: 180.549

Branch types
NOT_BRANCH: 41588350 83.1767%
BRANCH_DIRECT_JUMP: 464501 0.929002%
BRANCH_INDIRECT: 45704 0.091408%
BRANCH_CONDITIONAL: 6147408 12.2948%
BRANCH_DIRECT_CALL: 675450 1.3509%
BRANCH_INDIRECT_CALL: 201532 0.403064%
BRANCH_RETURN: 876985 1.75397%
BRANCH_OTHER: 0 0%

