MANA initialize 
tds: 2 tdm: 4
size MANA SINGLE: 74 KB
size MANA NULTIPLE: 43 KB
size HOBPT: 5 KB
size SRQ: 0.0644531 KB
size SABs: 0.0402832 KB
size prefetch queue: 0.453125 KB
total: 122.558 KB
Initialize SIGNATURE TABLE
ST_SET: 1
ST_WAY: 256
ST_TAG_BIT: 16
ST_TAG_MASK: ffff

Initialize PATTERN TABLE
PT_SET: 512
PT_WAY: 4
SIG_DELTA_BIT: 7
C_SIG_BIT: 4
C_DELTA_BIT: 4

Initialize PREFETCH FILTER
FILTER_SET: 1024

*** ChampSim Multicore Out-of-Order Simulator ***

Warmup Instructions: 50000000
Simulation Instructions: 50000000
Number of CPUs: 1
LLC sets: 2048
LLC ways: 16
Off-chip DRAM Size: 4096 MB Channels: 1 Width: 64-bit Data Rate: 3200 MT/s

CPU 0 runs /home/ykhodke/ChampSim/dpc3_traces/server_025.champsimtrace.xz
CPU 0 L1D next line prefetcher
Heartbeat CPU 0 instructions: 10000003 cycles: 3530375 heartbeat IPC: 2.83256 cumulative IPC: 2.83256 (Simulation time: 0 hr 0 min 17 sec) 
Heartbeat CPU 0 instructions: 20000000 cycles: 7068489 heartbeat IPC: 2.82636 cumulative IPC: 2.82946 (Simulation time: 0 hr 0 min 33 sec) 
Heartbeat CPU 0 instructions: 30000001 cycles: 10598073 heartbeat IPC: 2.8332 cumulative IPC: 2.8307 (Simulation time: 0 hr 0 min 49 sec) 
Heartbeat CPU 0 instructions: 40000003 cycles: 14133844 heartbeat IPC: 2.82824 cumulative IPC: 2.83009 (Simulation time: 0 hr 1 min 6 sec) 
Heartbeat CPU 0 instructions: 50000001 cycles: 17667338 heartbeat IPC: 2.83006 cumulative IPC: 2.83008 (Simulation time: 0 hr 1 min 22 sec) 

Warmup complete CPU 0 instructions: 50000001 cycles: 17667338 (Simulation time: 0 hr 1 min 22 sec) 

Heartbeat CPU 0 instructions: 60000002 cycles: 24890068 heartbeat IPC: 1.38452 cumulative IPC: 1.38452 (Simulation time: 0 hr 1 min 38 sec) 
Heartbeat CPU 0 instructions: 70000000 cycles: 32230045 heartbeat IPC: 1.3624 cumulative IPC: 1.37337 (Simulation time: 0 hr 1 min 55 sec) 
Heartbeat CPU 0 instructions: 80000002 cycles: 39453194 heartbeat IPC: 1.38444 cumulative IPC: 1.37704 (Simulation time: 0 hr 2 min 12 sec) 
Heartbeat CPU 0 instructions: 90000001 cycles: 46250942 heartbeat IPC: 1.47108 cumulative IPC: 1.3994 (Simulation time: 0 hr 2 min 28 sec) 
Heartbeat CPU 0 instructions: 100000003 cycles: 52700889 heartbeat IPC: 1.5504 cumulative IPC: 1.4272 (Simulation time: 0 hr 2 min 44 sec) 
Finished CPU 0 instructions: 50000002 cycles: 35033551 cumulative IPC: 1.4272 (Simulation time: 0 hr 2 min 44 sec) 

ChampSim completed all CPUs

Region of Interest Statistics

CPU 0 cumulative IPC: 1.4272 instructions: 50000002 cycles: 35033551
L1D TOTAL     ACCESS:   20340633  HIT:   18914909  MISS:    1425724
L1D LOAD      ACCESS:    7131644  HIT:    6513776  MISS:     617868
L1D RFO       ACCESS:    6386886  HIT:    6138606  MISS:     248280
L1D PREFETCH  ACCESS:    6822103  HIT:    6262527  MISS:     559576
L1D WRITEBACK ACCESS:          0  HIT:          0  MISS:          0
L1D PREFETCH  REQUESTED:    7173505  ISSUED:    7004167  USEFUL:     132297  USELESS:     427272
L1D AVERAGE MISS LATENCY: 23.8152 cycles
L1I TOTAL     ACCESS:   19278966  HIT:   16040819  MISS:    3238147
L1I LOAD      ACCESS:    9299157  HIT:    8587220  MISS:     711937
L1I RFO       ACCESS:          0  HIT:          0  MISS:          0
L1I PREFETCH  ACCESS:    9979809  HIT:    7453599  MISS:    2526210
L1I WRITEBACK ACCESS:          0  HIT:          0  MISS:          0
L1I PREFETCH  REQUESTED:   11245645  ISSUED:   11237438  USEFUL:    1785420  USELESS:     740819
L1I AVERAGE MISS LATENCY: 16.5646 cycles
L2C TOTAL     ACCESS:    6358965  HIT:    5639795  MISS:     719170
L2C LOAD      ACCESS:     984727  HIT:     815856  MISS:     168871
L2C RFO       ACCESS:     246708  HIT:     169260  MISS:      77448
L2C PREFETCH  ACCESS:    4630879  HIT:    4162285  MISS:     468594
L2C WRITEBACK ACCESS:     496651  HIT:     492394  MISS:       4257
L2C PREFETCH  REQUESTED:    5273867  ISSUED:    5262151  USEFUL:      27420  USELESS:     440454
L2C AVERAGE MISS LATENCY: 38.0409 cycles
LLC TOTAL     ACCESS:    2429193  HIT:    2397691  MISS:      31502
LLC LOAD      ACCESS:     168751  HIT:     165241  MISS:       3510
LLC RFO       ACCESS:      77442  HIT:      66644  MISS:      10798
LLC PREFETCH  ACCESS:    2041515  HIT:    2024596  MISS:      16919
LLC WRITEBACK ACCESS:     141485  HIT:     141210  MISS:        275
LLC PREFETCH  REQUESTED:          0  ISSUED:          0  USEFUL:       1274  USELESS:      13938
LLC AVERAGE MISS LATENCY: 181.848 cycles
Major fault: 0 Minor fault: 2522



Printing Logs
statHeadFound: 1843267
statHeadMissing: 2316012
statStreamBufferHit: 10240718
statPrefetchEntryFound: 8244707
statCompactorMatch: 11030003
statStreamTrackerLookup: 14399997
statRecord: 3369994
statGetPointer: 4159279
statEnqueuePrefetch: 22343907
statPrefetchQueueIsFull: 36
StreamBufferHitRate: 0.711161
Regions' size: 2557
next_region_correct: 2231428
next_region_wrong: 1136001
next_region_correct_prediction: 0.66265
statStreamBufferLookups: 143999970
statL1iLookups: 178751256
statCompactorLookups: 230399952
CPU 0 L1D next line prefetcher final stats

DRAM Statistics
 CHANNEL 0
 RQ ROW_BUFFER_HIT:       9781  ROW_BUFFER_MISS:      21432
 DBUS_CONGESTED:      20122
 WQ ROW_BUFFER_HIT:       1374  ROW_BUFFER_MISS:      12482  FULL:          0

 AVG_CONGESTED_CYCLE: 6

CPU 0 Branch Prediction Accuracy: 99.8142% MPKI: 0.34676 Average ROB Occupancy at Mispredict: 162.431

Branch types
NOT_BRANCH: 40668776 81.3375%
BRANCH_DIRECT_JUMP: 531700 1.0634%
BRANCH_INDIRECT: 199025 0.39805%
BRANCH_CONDITIONAL: 6211475 12.4229%
BRANCH_DIRECT_CALL: 1010909 2.02182%
BRANCH_INDIRECT_CALL: 183501 0.367002%
BRANCH_RETURN: 1194412 2.38882%
BRANCH_OTHER: 0 0%

