MANA initialize 
tds: 2 tdm: 4
size MANA SINGLE: 74 KB
size MANA NULTIPLE: 43 KB
size HOBPT: 5 KB
size SRQ: 0.0644531 KB
size SABs: 0.0402832 KB
size prefetch queue: 0.453125 KB
total: 122.558 KB
Initialize SIGNATURE TABLE
ST_SET: 1
ST_WAY: 256
ST_TAG_BIT: 16
ST_TAG_MASK: ffff

Initialize PATTERN TABLE
PT_SET: 512
PT_WAY: 4
SIG_DELTA_BIT: 7
C_SIG_BIT: 4
C_DELTA_BIT: 4

Initialize PREFETCH FILTER
FILTER_SET: 1024

*** ChampSim Multicore Out-of-Order Simulator ***

Warmup Instructions: 50000000
Simulation Instructions: 50000000
Number of CPUs: 1
LLC sets: 2048
LLC ways: 16
Off-chip DRAM Size: 4096 MB Channels: 1 Width: 64-bit Data Rate: 3200 MT/s

CPU 0 runs /home/ykhodke/ChampSim/dpc3_traces/server_027.champsimtrace.xz
CPU 0 L1D next line prefetcher
Heartbeat CPU 0 instructions: 10000001 cycles: 3529035 heartbeat IPC: 2.83364 cumulative IPC: 2.83364 (Simulation time: 0 hr 0 min 16 sec) 
Heartbeat CPU 0 instructions: 20000001 cycles: 7062725 heartbeat IPC: 2.8299 cumulative IPC: 2.83177 (Simulation time: 0 hr 0 min 33 sec) 
Heartbeat CPU 0 instructions: 30000002 cycles: 10591547 heartbeat IPC: 2.83381 cumulative IPC: 2.83245 (Simulation time: 0 hr 0 min 49 sec) 
Heartbeat CPU 0 instructions: 40000000 cycles: 14125952 heartbeat IPC: 2.82933 cumulative IPC: 2.83167 (Simulation time: 0 hr 1 min 5 sec) 
Heartbeat CPU 0 instructions: 50000001 cycles: 17654080 heartbeat IPC: 2.83436 cumulative IPC: 2.83221 (Simulation time: 0 hr 1 min 22 sec) 

Warmup complete CPU 0 instructions: 50000001 cycles: 17654080 (Simulation time: 0 hr 1 min 22 sec) 

Heartbeat CPU 0 instructions: 60000002 cycles: 24870235 heartbeat IPC: 1.38578 cumulative IPC: 1.38578 (Simulation time: 0 hr 1 min 38 sec) 
Heartbeat CPU 0 instructions: 70000003 cycles: 32004907 heartbeat IPC: 1.40161 cumulative IPC: 1.39365 (Simulation time: 0 hr 1 min 54 sec) 
Heartbeat CPU 0 instructions: 80000002 cycles: 39183547 heartbeat IPC: 1.39302 cumulative IPC: 1.39344 (Simulation time: 0 hr 2 min 11 sec) 
Heartbeat CPU 0 instructions: 90000001 cycles: 46415900 heartbeat IPC: 1.38268 cumulative IPC: 1.39073 (Simulation time: 0 hr 2 min 28 sec) 
Heartbeat CPU 0 instructions: 100000002 cycles: 53527288 heartbeat IPC: 1.4062 cumulative IPC: 1.3938 (Simulation time: 0 hr 2 min 44 sec) 
Finished CPU 0 instructions: 50000001 cycles: 35873208 cumulative IPC: 1.3938 (Simulation time: 0 hr 2 min 44 sec) 

ChampSim completed all CPUs

Region of Interest Statistics

CPU 0 cumulative IPC: 1.3938 instructions: 50000001 cycles: 35873208
L1D TOTAL     ACCESS:   20339244  HIT:   18737050  MISS:    1602194
L1D LOAD      ACCESS:    7157054  HIT:    6468302  MISS:     688752
L1D RFO       ACCESS:    6303871  HIT:    6018578  MISS:     285293
L1D PREFETCH  ACCESS:    6878319  HIT:    6250170  MISS:     628149
L1D WRITEBACK ACCESS:          0  HIT:          0  MISS:          0
L1D PREFETCH  REQUESTED:    7201494  ISSUED:    7080043  USEFUL:     153277  USELESS:     474884
L1D AVERAGE MISS LATENCY: 23.4523 cycles
L1I TOTAL     ACCESS:   19167617  HIT:   15467136  MISS:    3700481
L1I LOAD      ACCESS:    9232948  HIT:    8423482  MISS:     809466
L1I RFO       ACCESS:          0  HIT:          0  MISS:          0
L1I PREFETCH  ACCESS:    9934669  HIT:    7043654  MISS:    2891015
L1I WRITEBACK ACCESS:          0  HIT:          0  MISS:          0
L1I PREFETCH  REQUESTED:   11264357  ISSUED:   11255914  USEFUL:    2024977  USELESS:     866003
L1I AVERAGE MISS LATENCY: 16.2177 cycles
L2C TOTAL     ACCESS:    7209240  HIT:    6459507  MISS:     749733
L2C LOAD      ACCESS:    1111646  HIT:     940671  MISS:     170975
L2C RFO       ACCESS:     283663  HIT:     195355  MISS:      88308
L2C PREFETCH  ACCESS:    5254728  HIT:    4768860  MISS:     485868
L2C WRITEBACK ACCESS:     559203  HIT:     554621  MISS:       4582
L2C PREFETCH  REQUESTED:    5681538  ISSUED:    5671670  USEFUL:      27199  USELESS:     457756
L2C AVERAGE MISS LATENCY: 38.7705 cycles
LLC TOTAL     ACCESS:    2548238  HIT:    2512875  MISS:      35363
LLC LOAD      ACCESS:     170839  HIT:     167223  MISS:       3616
LLC RFO       ACCESS:      88307  HIT:      74373  MISS:      13934
LLC PREFETCH  ACCESS:    2143930  HIT:    2126307  MISS:      17623
LLC WRITEBACK ACCESS:     145162  HIT:     144972  MISS:        190
LLC PREFETCH  REQUESTED:          0  ISSUED:          0  USEFUL:       1358  USELESS:      14730
LLC AVERAGE MISS LATENCY: 183.805 cycles
Major fault: 0 Minor fault: 2542



Printing Logs
statHeadFound: 1872853
statHeadMissing: 2387446
statStreamBufferHit: 9958072
statPrefetchEntryFound: 8185362
statCompactorMatch: 10997770
statStreamTrackerLookup: 14218371
statRecord: 3220601
statGetPointer: 4260299
statEnqueuePrefetch: 22371106
statPrefetchQueueIsFull: 59
StreamBufferHitRate: 0.700367
Regions' size: 2569
next_region_correct: 2134691
next_region_wrong: 1083333
next_region_correct_prediction: 0.663355
statStreamBufferLookups: 142183710
statL1iLookups: 178968848
statCompactorLookups: 227493936
CPU 0 L1D next line prefetcher final stats

DRAM Statistics
 CHANNEL 0
 RQ ROW_BUFFER_HIT:      11426  ROW_BUFFER_MISS:      23743
 DBUS_CONGESTED:      23967
 WQ ROW_BUFFER_HIT:       1794  ROW_BUFFER_MISS:      15246  FULL:          0

 AVG_CONGESTED_CYCLE: 6

CPU 0 Branch Prediction Accuracy: 99.8082% MPKI: 0.35064 Average ROB Occupancy at Mispredict: 149.682

Branch types
NOT_BRANCH: 40857467 81.7149%
BRANCH_DIRECT_JUMP: 526634 1.05327%
BRANCH_INDIRECT: 205902 0.411804%
BRANCH_CONDITIONAL: 6184047 12.3681%
BRANCH_DIRECT_CALL: 938467 1.87693%
BRANCH_INDIRECT_CALL: 174486 0.348972%
BRANCH_RETURN: 1112957 2.22591%
BRANCH_OTHER: 0 0%

