MANA initialize 
tds: 2 tdm: 4
size MANA SINGLE: 74 KB
size MANA NULTIPLE: 43 KB
size HOBPT: 5 KB
size SRQ: 0.0644531 KB
size SABs: 0.0402832 KB
size prefetch queue: 0.453125 KB
total: 122.558 KB
Initialize SIGNATURE TABLE
ST_SET: 1
ST_WAY: 256
ST_TAG_BIT: 16
ST_TAG_MASK: ffff

Initialize PATTERN TABLE
PT_SET: 512
PT_WAY: 4
SIG_DELTA_BIT: 7
C_SIG_BIT: 4
C_DELTA_BIT: 4

Initialize PREFETCH FILTER
FILTER_SET: 1024

*** ChampSim Multicore Out-of-Order Simulator ***

Warmup Instructions: 50000000
Simulation Instructions: 50000000
Number of CPUs: 1
LLC sets: 2048
LLC ways: 16
Off-chip DRAM Size: 4096 MB Channels: 1 Width: 64-bit Data Rate: 3200 MT/s

CPU 0 runs /home/ykhodke/ChampSim/dpc3_traces/server_018.champsimtrace.xz
CPU 0 L1D next line prefetcher
Heartbeat CPU 0 instructions: 10000003 cycles: 3616171 heartbeat IPC: 2.76536 cumulative IPC: 2.76536 (Simulation time: 0 hr 0 min 16 sec) 
Heartbeat CPU 0 instructions: 20000001 cycles: 7237254 heartbeat IPC: 2.7616 cumulative IPC: 2.76348 (Simulation time: 0 hr 0 min 32 sec) 
Heartbeat CPU 0 instructions: 30000003 cycles: 10712498 heartbeat IPC: 2.8775 cumulative IPC: 2.80047 (Simulation time: 0 hr 0 min 47 sec) 
Heartbeat CPU 0 instructions: 40000000 cycles: 14223880 heartbeat IPC: 2.84788 cumulative IPC: 2.81217 (Simulation time: 0 hr 1 min 2 sec) 
Heartbeat CPU 0 instructions: 50000003 cycles: 17840621 heartbeat IPC: 2.76492 cumulative IPC: 2.80259 (Simulation time: 0 hr 1 min 18 sec) 

Warmup complete CPU 0 instructions: 50000003 cycles: 17840621 (Simulation time: 0 hr 1 min 18 sec) 

Heartbeat CPU 0 instructions: 60000000 cycles: 35507324 heartbeat IPC: 0.566036 cumulative IPC: 0.566036 (Simulation time: 0 hr 1 min 40 sec) 
Heartbeat CPU 0 instructions: 70000001 cycles: 53275783 heartbeat IPC: 0.562795 cumulative IPC: 0.564411 (Simulation time: 0 hr 2 min 2 sec) 
Heartbeat CPU 0 instructions: 80000000 cycles: 70928040 heartbeat IPC: 0.5665 cumulative IPC: 0.565106 (Simulation time: 0 hr 2 min 24 sec) 
Heartbeat CPU 0 instructions: 90000002 cycles: 88643737 heartbeat IPC: 0.564471 cumulative IPC: 0.564947 (Simulation time: 0 hr 2 min 45 sec) 
Heartbeat CPU 0 instructions: 100000000 cycles: 106345155 heartbeat IPC: 0.564926 cumulative IPC: 0.564943 (Simulation time: 0 hr 3 min 7 sec) 
Finished CPU 0 instructions: 50000002 cycles: 88504537 cumulative IPC: 0.564943 (Simulation time: 0 hr 3 min 7 sec) 

ChampSim completed all CPUs

Region of Interest Statistics

CPU 0 cumulative IPC: 0.564943 instructions: 50000002 cycles: 88504537
L1D TOTAL     ACCESS:   18676259  HIT:   16458530  MISS:    2217729
L1D LOAD      ACCESS:    7066000  HIT:    6337666  MISS:     728334
L1D RFO       ACCESS:    5819280  HIT:    4867041  MISS:     952239
L1D PREFETCH  ACCESS:    5790979  HIT:    5253823  MISS:     537156
L1D WRITEBACK ACCESS:          0  HIT:          0  MISS:          0
L1D PREFETCH  REQUESTED:    7106801  ISSUED:    6904127  USEFUL:     197415  USELESS:     339830
L1D AVERAGE MISS LATENCY: 174.622 cycles
L1I TOTAL     ACCESS:   17892307  HIT:   15428002  MISS:    2464305
L1I LOAD      ACCESS:   10008657  HIT:    9671845  MISS:     336812
L1I RFO       ACCESS:          0  HIT:          0  MISS:          0
L1I PREFETCH  ACCESS:    7883650  HIT:    5756157  MISS:    2127493
L1I WRITEBACK ACCESS:          0  HIT:          0  MISS:          0
L1I PREFETCH  REQUESTED:    8581841  ISSUED:    8563447  USEFUL:    2030799  USELESS:      96668
L1I AVERAGE MISS LATENCY: 16.5544 cycles
L2C TOTAL     ACCESS:    6829696  HIT:    4964898  MISS:    1864798
L2C LOAD      ACCESS:     611880  HIT:     341515  MISS:     270365
L2C RFO       ACCESS:     951815  HIT:      21483  MISS:     930332
L2C PREFETCH  ACCESS:    4095928  HIT:    3435552  MISS:     660376
L2C WRITEBACK ACCESS:    1170073  HIT:    1166348  MISS:       3725
L2C PREFETCH  REQUESTED:    4055733  ISSUED:    4050353  USEFUL:      29392  USELESS:     631840
L2C AVERAGE MISS LATENCY: 213.539 cycles
LLC TOTAL     ACCESS:    4071307  HIT:    2621408  MISS:    1449899
LLC LOAD      ACCESS:     270099  HIT:     171223  MISS:      98876
LLC RFO       ACCESS:     930329  HIT:     133139  MISS:     797190
LLC PREFETCH  ACCESS:    1770599  HIT:    1218870  MISS:     551729
LLC WRITEBACK ACCESS:    1100280  HIT:    1098176  MISS:       2104
LLC PREFETCH  REQUESTED:          0  ISSUED:          0  USEFUL:      30297  USELESS:     521220
LLC AVERAGE MISS LATENCY: 276.912 cycles
Major fault: 0 Minor fault: 22496



Printing Logs
statHeadFound: 987152
statHeadMissing: 1966219
statStreamBufferHit: 10217208
statPrefetchEntryFound: 5325533
statCompactorMatch: 10611208
statStreamTrackerLookup: 13170579
statRecord: 2559371
statGetPointer: 2953371
statEnqueuePrefetch: 16138887
statPrefetchQueueIsFull: 0
StreamBufferHitRate: 0.77576
Regions' size: 1445
next_region_correct: 2063904
next_region_wrong: 494014
next_region_correct_prediction: 0.806869
statStreamBufferLookups: 131705790
statL1iLookups: 129111096
statCompactorLookups: 210729264
CPU 0 L1D next line prefetcher final stats

DRAM Statistics
 CHANNEL 0
 RQ ROW_BUFFER_HIT:     407436  ROW_BUFFER_MISS:    1040103
 DBUS_CONGESTED:    1442468
 WQ ROW_BUFFER_HIT:     263310  ROW_BUFFER_MISS:     634402  FULL:          0

 AVG_CONGESTED_CYCLE: 6

CPU 0 Branch Prediction Accuracy: 99.7114% MPKI: 0.47678 Average ROB Occupancy at Mispredict: 208.143

Branch types
NOT_BRANCH: 41741019 83.482%
BRANCH_DIRECT_JUMP: 458652 0.917304%
BRANCH_INDIRECT: 48282 0.096564%
BRANCH_CONDITIONAL: 5930882 11.8618%
BRANCH_DIRECT_CALL: 744230 1.48846%
BRANCH_INDIRECT_CALL: 166336 0.332672%
BRANCH_RETURN: 910589 1.82118%
BRANCH_OTHER: 0 0%

