MANA initialize 
tds: 2 tdm: 4
size MANA SINGLE: 74 KB
size MANA NULTIPLE: 43 KB
size HOBPT: 5 KB
size SRQ: 0.0644531 KB
size SABs: 0.0402832 KB
size prefetch queue: 0.453125 KB
total: 122.558 KB
Initialize SIGNATURE TABLE
ST_SET: 1
ST_WAY: 256
ST_TAG_BIT: 16
ST_TAG_MASK: ffff

Initialize PATTERN TABLE
PT_SET: 512
PT_WAY: 4
SIG_DELTA_BIT: 7
C_SIG_BIT: 4
C_DELTA_BIT: 4

Initialize PREFETCH FILTER
FILTER_SET: 1024

*** ChampSim Multicore Out-of-Order Simulator ***

Warmup Instructions: 50000000
Simulation Instructions: 50000000
Number of CPUs: 1
LLC sets: 2048
LLC ways: 16
Off-chip DRAM Size: 4096 MB Channels: 1 Width: 64-bit Data Rate: 3200 MT/s

CPU 0 runs /home/ykhodke/ChampSim/dpc3_traces/server_002.champsimtrace.xz
CPU 0 L1D next line prefetcher
Heartbeat CPU 0 instructions: 10000000 cycles: 3581224 heartbeat IPC: 2.79234 cumulative IPC: 2.79234 (Simulation time: 0 hr 0 min 15 sec) 
Heartbeat CPU 0 instructions: 20000002 cycles: 7170052 heartbeat IPC: 2.78643 cumulative IPC: 2.78938 (Simulation time: 0 hr 0 min 31 sec) 
Heartbeat CPU 0 instructions: 30000000 cycles: 10710786 heartbeat IPC: 2.82427 cumulative IPC: 2.80092 (Simulation time: 0 hr 0 min 47 sec) 
Heartbeat CPU 0 instructions: 40000000 cycles: 14261031 heartbeat IPC: 2.81671 cumulative IPC: 2.80485 (Simulation time: 0 hr 1 min 2 sec) 
Heartbeat CPU 0 instructions: 50000001 cycles: 17808802 heartbeat IPC: 2.81867 cumulative IPC: 2.8076 (Simulation time: 0 hr 1 min 18 sec) 

Warmup complete CPU 0 instructions: 50000001 cycles: 17808802 (Simulation time: 0 hr 1 min 18 sec) 

Heartbeat CPU 0 instructions: 60000000 cycles: 24248558 heartbeat IPC: 1.55285 cumulative IPC: 1.55285 (Simulation time: 0 hr 1 min 34 sec) 
Heartbeat CPU 0 instructions: 70000003 cycles: 30683110 heartbeat IPC: 1.55411 cumulative IPC: 1.55348 (Simulation time: 0 hr 1 min 50 sec) 
Heartbeat CPU 0 instructions: 80000003 cycles: 37119855 heartbeat IPC: 1.55358 cumulative IPC: 1.55351 (Simulation time: 0 hr 2 min 6 sec) 
Heartbeat CPU 0 instructions: 90000002 cycles: 43554277 heartbeat IPC: 1.55414 cumulative IPC: 1.55367 (Simulation time: 0 hr 2 min 22 sec) 
Heartbeat CPU 0 instructions: 100000003 cycles: 49988627 heartbeat IPC: 1.55416 cumulative IPC: 1.55377 (Simulation time: 0 hr 2 min 39 sec) 
Finished CPU 0 instructions: 50000002 cycles: 32179825 cumulative IPC: 1.55377 (Simulation time: 0 hr 2 min 39 sec) 

ChampSim completed all CPUs

Region of Interest Statistics

CPU 0 cumulative IPC: 1.55377 instructions: 50000002 cycles: 32179825
L1D TOTAL     ACCESS:   21526894  HIT:   21526086  MISS:        808
L1D LOAD      ACCESS:    6603019  HIT:    6602645  MISS:        374
L1D RFO       ACCESS:    8433156  HIT:    8433043  MISS:        113
L1D PREFETCH  ACCESS:    6490719  HIT:    6490398  MISS:        321
L1D WRITEBACK ACCESS:          0  HIT:          0  MISS:          0
L1D PREFETCH  REQUESTED:    6603075  ISSUED:    6498124  USEFUL:         91  USELESS:        231
L1D AVERAGE MISS LATENCY: 36.5198 cycles
L1I TOTAL     ACCESS:   20638640  HIT:   19583457  MISS:    1055183
L1I LOAD      ACCESS:    9770180  HIT:    9539562  MISS:     230618
L1I RFO       ACCESS:          0  HIT:          0  MISS:          0
L1I PREFETCH  ACCESS:   10868460  HIT:   10043895  MISS:     824565
L1I WRITEBACK ACCESS:          0  HIT:          0  MISS:          0
L1I PREFETCH  REQUESTED:   11536723  ISSUED:   11536723  USEFUL:     733260  USELESS:      91307
L1I AVERAGE MISS LATENCY: 11.8667 cycles
L2C TOTAL     ACCESS:    1297581  HIT:    1297233  MISS:        348
L2C LOAD      ACCESS:      60768  HIT:      60684  MISS:         84
L2C RFO       ACCESS:        113  HIT:        110  MISS:          3
L2C PREFETCH  ACCESS:    1236365  HIT:    1236104  MISS:        261
L2C WRITEBACK ACCESS:        335  HIT:        335  MISS:          0
L2C PREFETCH  REQUESTED:     787604  ISSUED:     787569  USEFUL:         76  USELESS:        138
L2C AVERAGE MISS LATENCY: 112.635 cycles
LLC TOTAL     ACCESS:     299725  HIT:     298942  MISS:        783
LLC LOAD      ACCESS:         84  HIT:         70  MISS:         14
LLC RFO       ACCESS:          3  HIT:          1  MISS:          2
LLC PREFETCH  ACCESS:     299539  HIT:     298773  MISS:        766
LLC WRITEBACK ACCESS:         99  HIT:         98  MISS:          1
LLC PREFETCH  REQUESTED:          0  ISSUED:          0  USEFUL:         12  USELESS:        242
LLC AVERAGE MISS LATENCY: 286.677 cycles
Major fault: 0 Minor fault: 1929



Printing Logs
statHeadFound: 1836751
statHeadMissing: 1416479
statStreamBufferHit: 11562935
statPrefetchEntryFound: 8499367
statCompactorMatch: 11102852
statStreamTrackerLookup: 14816165
statRecord: 3713313
statGetPointer: 3253230
statEnqueuePrefetch: 23004574
statPrefetchQueueIsFull: 0
StreamBufferHitRate: 0.780427
Regions' size: 2730
next_region_correct: 2541230
next_region_wrong: 1169345
next_region_correct_prediction: 0.684862
statStreamBufferLookups: 148161650
statL1iLookups: 184036592
statCompactorLookups: 237058640
CPU 0 L1D next line prefetcher final stats

DRAM Statistics
 CHANNEL 0
 RQ ROW_BUFFER_HIT:        109  ROW_BUFFER_MISS:        673
 DBUS_CONGESTED:        454
 WQ ROW_BUFFER_HIT:         77  ROW_BUFFER_MISS:        372  FULL:          0

 AVG_CONGESTED_CYCLE: 6

CPU 0 Branch Prediction Accuracy: 99.8789% MPKI: 0.20388 Average ROB Occupancy at Mispredict: 269.219

Branch types
NOT_BRANCH: 41580695 83.1614%
BRANCH_DIRECT_JUMP: 461630 0.92326%
BRANCH_INDIRECT: 0 0%
BRANCH_CONDITIONAL: 5376437 10.7529%
BRANCH_DIRECT_CALL: 1175775 2.35155%
BRANCH_INDIRECT_CALL: 114840 0.22968%
BRANCH_RETURN: 1290625 2.58125%
BRANCH_OTHER: 0 0%

