Initialize SIGNATURE TABLE
ST_SET: 1
ST_WAY: 256
ST_TAG_BIT: 16
ST_TAG_MASK: ffff

Initialize PATTERN TABLE
PT_SET: 512
PT_WAY: 4
SIG_DELTA_BIT: 7
C_SIG_BIT: 4
C_DELTA_BIT: 4

Initialize PREFETCH FILTER
FILTER_SET: 1024

*** ChampSim Multicore Out-of-Order Simulator ***

Warmup Instructions: 50000000
Simulation Instructions: 50000000
Number of CPUs: 1
LLC sets: 2048
LLC ways: 16
Off-chip DRAM Size: 4096 MB Channels: 1 Width: 64-bit Data Rate: 3200 MT/s

CPU 0 runs /home/ykhodke/ChampSim/dpc3_traces/621.wrf_s-575B.champsimtrace.xz
CPU 0 EPI prefetcher
CPU 0 L1D next line prefetcher
Heartbeat CPU 0 instructions: 10000000 cycles: 4328661 heartbeat IPC: 2.31018 cumulative IPC: 2.31018 (Simulation time: 0 hr 0 min 13 sec) 
Heartbeat CPU 0 instructions: 20000002 cycles: 8673311 heartbeat IPC: 2.30168 cumulative IPC: 2.30592 (Simulation time: 0 hr 0 min 27 sec) 
Heartbeat CPU 0 instructions: 30000000 cycles: 13029333 heartbeat IPC: 2.29567 cumulative IPC: 2.3025 (Simulation time: 0 hr 0 min 40 sec) 
Heartbeat CPU 0 instructions: 40000002 cycles: 17381177 heartbeat IPC: 2.29788 cumulative IPC: 2.30134 (Simulation time: 0 hr 0 min 54 sec) 
Heartbeat CPU 0 instructions: 50000002 cycles: 21730891 heartbeat IPC: 2.299 cumulative IPC: 2.30087 (Simulation time: 0 hr 1 min 8 sec) 

Warmup complete CPU 0 instructions: 50000002 cycles: 21730891 (Simulation time: 0 hr 1 min 8 sec) 

Heartbeat CPU 0 instructions: 60000003 cycles: 30397607 heartbeat IPC: 1.15384 cumulative IPC: 1.15384 (Simulation time: 0 hr 1 min 23 sec) 
Heartbeat CPU 0 instructions: 70000000 cycles: 39037890 heartbeat IPC: 1.15737 cumulative IPC: 1.1556 (Simulation time: 0 hr 1 min 38 sec) 
Heartbeat CPU 0 instructions: 80000000 cycles: 47624799 heartbeat IPC: 1.16456 cumulative IPC: 1.15857 (Simulation time: 0 hr 1 min 52 sec) 
Heartbeat CPU 0 instructions: 90000000 cycles: 56267712 heartbeat IPC: 1.15702 cumulative IPC: 1.15818 (Simulation time: 0 hr 2 min 7 sec) 
Heartbeat CPU 0 instructions: 100000001 cycles: 64877956 heartbeat IPC: 1.16141 cumulative IPC: 1.15883 (Simulation time: 0 hr 2 min 22 sec) 
Finished CPU 0 instructions: 50000000 cycles: 43147072 cumulative IPC: 1.15883 (Simulation time: 0 hr 2 min 22 sec) 

ChampSim completed all CPUs

Region of Interest Statistics

CPU 0 cumulative IPC: 1.15883 instructions: 50000000 cycles: 43147072
L1D TOTAL     ACCESS:   15293467  HIT:   15291918  MISS:       1549
L1D LOAD      ACCESS:    6687007  HIT:    6686717  MISS:        290
L1D RFO       ACCESS:    1925598  HIT:    1924843  MISS:        755
L1D PREFETCH  ACCESS:    6680862  HIT:    6680358  MISS:        504
L1D WRITEBACK ACCESS:          0  HIT:          0  MISS:          0
L1D PREFETCH  REQUESTED:    6687088  ISSUED:    6682286  USEFUL:        421  USELESS:         80
L1D AVERAGE MISS LATENCY: 132.547 cycles
L1I TOTAL     ACCESS:   28332498  HIT:   28332185  MISS:        313
L1I LOAD      ACCESS:   10572425  HIT:   10572418  MISS:          7
L1I RFO       ACCESS:          0  HIT:          0  MISS:          0
L1I PREFETCH  ACCESS:   17760073  HIT:   17759767  MISS:        306
L1I WRITEBACK ACCESS:          0  HIT:          0  MISS:          0
L1I PREFETCH  REQUESTED:   22507331  ISSUED:   22507331  USEFUL:        306  USELESS:          0
L1I AVERAGE MISS LATENCY: 13.9137 cycles
L2C TOTAL     ACCESS:       3246  HIT:       1782  MISS:       1464
L2C LOAD      ACCESS:        199  HIT:         43  MISS:        156
L2C RFO       ACCESS:        755  HIT:         25  MISS:        730
L2C PREFETCH  ACCESS:       1244  HIT:        666  MISS:        578
L2C WRITEBACK ACCESS:       1048  HIT:       1048  MISS:          0
L2C PREFETCH  REQUESTED:       2896  ISSUED:       2896  USEFUL:         24  USELESS:          0
L2C AVERAGE MISS LATENCY: 138.303 cycles
LLC TOTAL     ACCESS:       3144  HIT:       1554  MISS:       1590
LLC LOAD      ACCESS:        156  HIT:         43  MISS:        113
LLC RFO       ACCESS:        730  HIT:         19  MISS:        711
LLC PREFETCH  ACCESS:       2258  HIT:       1492  MISS:        766
LLC WRITEBACK ACCESS:          0  HIT:          0  MISS:          0
LLC PREFETCH  REQUESTED:          0  ISSUED:          0  USEFUL:         62  USELESS:          0
LLC AVERAGE MISS LATENCY: 155.172 cycles
Major fault: 0 Minor fault: 197
CPU 0 L1I EPI prefetcher final stats
CPU 0 L1D next line prefetcher final stats

DRAM Statistics
 CHANNEL 0
 RQ ROW_BUFFER_HIT:        478  ROW_BUFFER_MISS:       1112
 DBUS_CONGESTED:        604
 WQ ROW_BUFFER_HIT:          0  ROW_BUFFER_MISS:          0  FULL:          0

 AVG_CONGESTED_CYCLE: 6

CPU 0 Branch Prediction Accuracy: 99.6866% MPKI: 0.41812 Average ROB Occupancy at Mispredict: 263.289

Branch types
NOT_BRANCH: 43328386 86.6568%
BRANCH_DIRECT_JUMP: 484649 0.969298%
BRANCH_INDIRECT: 0 0%
BRANCH_CONDITIONAL: 5043854 10.0877%
BRANCH_DIRECT_CALL: 571556 1.14311%
BRANCH_INDIRECT_CALL: 0 0%
BRANCH_RETURN: 571556 1.14311%
BRANCH_OTHER: 0 0%

