Initialize SIGNATURE TABLE
ST_SET: 1
ST_WAY: 256
ST_TAG_BIT: 16
ST_TAG_MASK: ffff

Initialize PATTERN TABLE
PT_SET: 512
PT_WAY: 4
SIG_DELTA_BIT: 7
C_SIG_BIT: 4
C_DELTA_BIT: 4

Initialize PREFETCH FILTER
FILTER_SET: 1024

*** ChampSim Multicore Out-of-Order Simulator ***

Warmup Instructions: 50000000
Simulation Instructions: 50000000
Number of CPUs: 1
LLC sets: 2048
LLC ways: 16
Off-chip DRAM Size: 4096 MB Channels: 1 Width: 64-bit Data Rate: 3200 MT/s

CPU 0 runs /home/ykhodke/ChampSim/dpc3_traces/623.xalancbmk_s-700B.champsimtrace.xz
CPU 0 EPI prefetcher
CPU 0 L1D next line prefetcher
Heartbeat CPU 0 instructions: 10000002 cycles: 5012582 heartbeat IPC: 1.99498 cumulative IPC: 1.99498 (Simulation time: 0 hr 0 min 16 sec) 
Heartbeat CPU 0 instructions: 20000001 cycles: 9398837 heartbeat IPC: 2.27985 cumulative IPC: 2.12792 (Simulation time: 0 hr 0 min 32 sec) 
Heartbeat CPU 0 instructions: 30000000 cycles: 14457665 heartbeat IPC: 1.97674 cumulative IPC: 2.07502 (Simulation time: 0 hr 0 min 49 sec) 
Heartbeat CPU 0 instructions: 40000002 cycles: 19686149 heartbeat IPC: 1.9126 cumulative IPC: 2.03189 (Simulation time: 0 hr 1 min 7 sec) 
Heartbeat CPU 0 instructions: 50000002 cycles: 24819580 heartbeat IPC: 1.94801 cumulative IPC: 2.01454 (Simulation time: 0 hr 1 min 24 sec) 

Warmup complete CPU 0 instructions: 50000002 cycles: 24819580 (Simulation time: 0 hr 1 min 24 sec) 

Heartbeat CPU 0 instructions: 60000003 cycles: 36234814 heartbeat IPC: 0.876022 cumulative IPC: 0.876022 (Simulation time: 0 hr 1 min 41 sec) 
Heartbeat CPU 0 instructions: 70000002 cycles: 50780752 heartbeat IPC: 0.687477 cumulative IPC: 0.770381 (Simulation time: 0 hr 1 min 59 sec) 
Heartbeat CPU 0 instructions: 80000000 cycles: 70237004 heartbeat IPC: 0.513973 cumulative IPC: 0.660539 (Simulation time: 0 hr 2 min 21 sec) 
Heartbeat CPU 0 instructions: 90000000 cycles: 86861653 heartbeat IPC: 0.601516 cumulative IPC: 0.644724 (Simulation time: 0 hr 2 min 41 sec) 
Heartbeat CPU 0 instructions: 100000001 cycles: 105822606 heartbeat IPC: 0.5274 cumulative IPC: 0.617261 (Simulation time: 0 hr 3 min 3 sec) 
Finished CPU 0 instructions: 50000001 cycles: 81003028 cumulative IPC: 0.617261 (Simulation time: 0 hr 3 min 3 sec) 

ChampSim completed all CPUs

Region of Interest Statistics

CPU 0 cumulative IPC: 0.617261 instructions: 50000001 cycles: 81003028
L1D TOTAL     ACCESS:   18920813  HIT:   14757728  MISS:    4163085
L1D LOAD      ACCESS:    8319150  HIT:    5944763  MISS:    2374387
L1D RFO       ACCESS:    3132638  HIT:    3100827  MISS:      31811
L1D PREFETCH  ACCESS:    7469025  HIT:    5712138  MISS:    1756887
L1D WRITEBACK ACCESS:          0  HIT:          0  MISS:          0
L1D PREFETCH  REQUESTED:    8402500  ISSUED:    8235083  USEFUL:     395129  USELESS:    1361648
L1D AVERAGE MISS LATENCY: 21.1024 cycles
L1I TOTAL     ACCESS:   33815001  HIT:   33567208  MISS:     247793
L1I LOAD      ACCESS:   12986832  HIT:   12980594  MISS:       6238
L1I RFO       ACCESS:          0  HIT:          0  MISS:          0
L1I PREFETCH  ACCESS:   20828169  HIT:   20586614  MISS:     241555
L1I WRITEBACK ACCESS:          0  HIT:          0  MISS:          0
L1I PREFETCH  REQUESTED:   21710666  ISSUED:   21710666  USEFUL:     179849  USELESS:      61677
L1I AVERAGE MISS LATENCY: 16.4481 cycles
L2C TOTAL     ACCESS:    6621768  HIT:    6161761  MISS:     460007
L2C LOAD      ACCESS:    2270183  HIT:    2028079  MISS:     242104
L2C RFO       ACCESS:      31581  HIT:       8931  MISS:      22650
L2C PREFETCH  ACCESS:    4234289  HIT:    4039036  MISS:     195253
L2C WRITEBACK ACCESS:      85715  HIT:      85715  MISS:          0
L2C PREFETCH  REQUESTED:    6878684  ISSUED:    6878410  USEFUL:       8602  USELESS:     186874
L2C AVERAGE MISS LATENCY: 47.9725 cycles
LLC TOTAL     ACCESS:    2505126  HIT:    2422535  MISS:      82591
LLC LOAD      ACCESS:     241844  HIT:     227877  MISS:      13967
LLC RFO       ACCESS:      22647  HIT:       9905  MISS:      12742
LLC PREFETCH  ACCESS:    2190505  HIT:    2135803  MISS:      54702
LLC WRITEBACK ACCESS:      50130  HIT:      48950  MISS:       1180
LLC PREFETCH  REQUESTED:          0  ISSUED:          0  USEFUL:       7249  USELESS:      41277
LLC AVERAGE MISS LATENCY: 176.961 cycles
Major fault: 0 Minor fault: 3570
CPU 0 L1I EPI prefetcher final stats
CPU 0 L1D next line prefetcher final stats

DRAM Statistics
 CHANNEL 0
 RQ ROW_BUFFER_HIT:      13295  ROW_BUFFER_MISS:      68114
 DBUS_CONGESTED:      41506
 WQ ROW_BUFFER_HIT:       5426  ROW_BUFFER_MISS:      32622  FULL:          0

 AVG_CONGESTED_CYCLE: 5

CPU 0 Branch Prediction Accuracy: 99.7227% MPKI: 0.78238 Average ROB Occupancy at Mispredict: 146.551

Branch types
NOT_BRANCH: 35891713 71.7834%
BRANCH_DIRECT_JUMP: 408140 0.81628%
BRANCH_INDIRECT: 152644 0.305288%
BRANCH_CONDITIONAL: 12052504 24.105%
BRANCH_DIRECT_CALL: 454801 0.909602%
BRANCH_INDIRECT_CALL: 292700 0.5854%
BRANCH_RETURN: 747496 1.49499%
BRANCH_OTHER: 0 0%

