Initialize SIGNATURE TABLE
ST_SET: 1
ST_WAY: 256
ST_TAG_BIT: 16
ST_TAG_MASK: ffff

Initialize PATTERN TABLE
PT_SET: 512
PT_WAY: 4
SIG_DELTA_BIT: 7
C_SIG_BIT: 4
C_DELTA_BIT: 4

Initialize PREFETCH FILTER
FILTER_SET: 1024

*** ChampSim Multicore Out-of-Order Simulator ***

Warmup Instructions: 50000000
Simulation Instructions: 50000000
Number of CPUs: 1
LLC sets: 2048
LLC ways: 16
Off-chip DRAM Size: 4096 MB Channels: 1 Width: 64-bit Data Rate: 3200 MT/s

CPU 0 runs /home/ykhodke/ChampSim/dpc3_traces/627.cam4_s-573B.champsimtrace.xz
CPU 0 EPI prefetcher
CPU 0 L1D next line prefetcher
Heartbeat CPU 0 instructions: 10000003 cycles: 3427650 heartbeat IPC: 2.91745 cumulative IPC: 2.91745 (Simulation time: 0 hr 0 min 11 sec) 
Heartbeat CPU 0 instructions: 20000001 cycles: 6664810 heartbeat IPC: 3.08913 cumulative IPC: 3.00084 (Simulation time: 0 hr 0 min 25 sec) 
Heartbeat CPU 0 instructions: 30000003 cycles: 9895461 heartbeat IPC: 3.09535 cumulative IPC: 3.03169 (Simulation time: 0 hr 0 min 38 sec) 
Heartbeat CPU 0 instructions: 40000003 cycles: 13065113 heartbeat IPC: 3.15492 cumulative IPC: 3.06159 (Simulation time: 0 hr 0 min 52 sec) 
Heartbeat CPU 0 instructions: 50000002 cycles: 16392800 heartbeat IPC: 3.00509 cumulative IPC: 3.05012 (Simulation time: 0 hr 1 min 7 sec) 

Warmup complete CPU 0 instructions: 50000002 cycles: 16392800 (Simulation time: 0 hr 1 min 7 sec) 

Heartbeat CPU 0 instructions: 60000003 cycles: 23175053 heartbeat IPC: 1.47444 cumulative IPC: 1.47444 (Simulation time: 0 hr 1 min 20 sec) 
Heartbeat CPU 0 instructions: 70000000 cycles: 29686515 heartbeat IPC: 1.53575 cumulative IPC: 1.50447 (Simulation time: 0 hr 1 min 33 sec) 
Heartbeat CPU 0 instructions: 80000002 cycles: 36640682 heartbeat IPC: 1.43799 cumulative IPC: 1.48164 (Simulation time: 0 hr 1 min 44 sec) 
Heartbeat CPU 0 instructions: 90000003 cycles: 44187408 heartbeat IPC: 1.32508 cumulative IPC: 1.43913 (Simulation time: 0 hr 1 min 57 sec) 
Heartbeat CPU 0 instructions: 100000000 cycles: 52344003 heartbeat IPC: 1.226 cumulative IPC: 1.39077 (Simulation time: 0 hr 2 min 9 sec) 
Finished CPU 0 instructions: 50000000 cycles: 35951205 cumulative IPC: 1.39077 (Simulation time: 0 hr 2 min 9 sec) 

ChampSim completed all CPUs

Region of Interest Statistics

CPU 0 cumulative IPC: 1.39077 instructions: 50000000 cycles: 35951205
L1D TOTAL     ACCESS:   17272567  HIT:   16795162  MISS:     477405
L1D LOAD      ACCESS:    6883871  HIT:    6754029  MISS:     129842
L1D RFO       ACCESS:    3786756  HIT:    3630861  MISS:     155895
L1D PREFETCH  ACCESS:    6601940  HIT:    6410272  MISS:     191668
L1D WRITEBACK ACCESS:          0  HIT:          0  MISS:          0
L1D PREFETCH  REQUESTED:    6915029  ISSUED:    6741763  USEFUL:     124925  USELESS:      66941
L1D AVERAGE MISS LATENCY: 49.5961 cycles
L1I TOTAL     ACCESS:   22071735  HIT:   22023927  MISS:      47808
L1I LOAD      ACCESS:    8670819  HIT:    8659661  MISS:      11158
L1I RFO       ACCESS:          0  HIT:          0  MISS:          0
L1I PREFETCH  ACCESS:   13400916  HIT:   13364266  MISS:      36650
L1I WRITEBACK ACCESS:          0  HIT:          0  MISS:          0
L1I PREFETCH  REQUESTED:   17008035  ISSUED:   17008035  USEFUL:      20153  USELESS:      16413
L1I AVERAGE MISS LATENCY: 29.1837 cycles
L2C TOTAL     ACCESS:    1209331  HIT:    1096701  MISS:     112630
L2C LOAD      ACCESS:     103585  HIT:      81347  MISS:      22238
L2C RFO       ACCESS:     155649  HIT:     106828  MISS:      48821
L2C PREFETCH  ACCESS:     758012  HIT:     716454  MISS:      41558
L2C WRITEBACK ACCESS:     192085  HIT:     192072  MISS:         13
L2C PREFETCH  REQUESTED:     834131  ISSUED:     823813  USEFUL:      14765  USELESS:      28476
L2C AVERAGE MISS LATENCY: 162.162 cycles
LLC TOTAL     ACCESS:     268967  HIT:     176521  MISS:      92446
LLC LOAD      ACCESS:      21760  HIT:      10571  MISS:      11189
LLC RFO       ACCESS:      48819  HIT:       6084  MISS:      42735
LLC PREFETCH  ACCESS:     152396  HIT:     114907  MISS:      37489
LLC WRITEBACK ACCESS:      45992  HIT:      44959  MISS:       1033
LLC PREFETCH  REQUESTED:          0  ISSUED:          0  USEFUL:       8407  USELESS:      37348
LLC AVERAGE MISS LATENCY: 216.872 cycles
Major fault: 0 Minor fault: 4521
CPU 0 L1I EPI prefetcher final stats
CPU 0 L1D next line prefetcher final stats

DRAM Statistics
 CHANNEL 0
 RQ ROW_BUFFER_HIT:      42128  ROW_BUFFER_MISS:      49271
 DBUS_CONGESTED:      69580
 WQ ROW_BUFFER_HIT:       7555  ROW_BUFFER_MISS:      28602  FULL:          0

 AVG_CONGESTED_CYCLE: 6

CPU 0 Branch Prediction Accuracy: 99.1543% MPKI: 1.34152 Average ROB Occupancy at Mispredict: 65.3141

Branch types
NOT_BRANCH: 42068125 84.1363%
BRANCH_DIRECT_JUMP: 424687 0.849374%
BRANCH_INDIRECT: 4954 0.009908%
BRANCH_CONDITIONAL: 7000588 14.0012%
BRANCH_DIRECT_CALL: 250822 0.501644%
BRANCH_INDIRECT_CALL: 0 0%
BRANCH_RETURN: 250827 0.501654%
BRANCH_OTHER: 0 0%

