Initialize SIGNATURE TABLE
ST_SET: 1
ST_WAY: 256
ST_TAG_BIT: 16
ST_TAG_MASK: ffff

Initialize PATTERN TABLE
PT_SET: 512
PT_WAY: 4
SIG_DELTA_BIT: 7
C_SIG_BIT: 4
C_DELTA_BIT: 4

Initialize PREFETCH FILTER
FILTER_SET: 1024

*** ChampSim Multicore Out-of-Order Simulator ***

Warmup Instructions: 50000000
Simulation Instructions: 50000000
Number of CPUs: 1
LLC sets: 2048
LLC ways: 16
Off-chip DRAM Size: 4096 MB Channels: 1 Width: 64-bit Data Rate: 3200 MT/s

CPU 0 runs /home/ykhodke/ChampSim/dpc3_traces/644.nab_s-5853B.champsimtrace.xz
CPU 0 EPI prefetcher
CPU 0 L1D next line prefetcher
Heartbeat CPU 0 instructions: 10000000 cycles: 4234323 heartbeat IPC: 2.36165 cumulative IPC: 2.36165 (Simulation time: 0 hr 0 min 15 sec) 
Heartbeat CPU 0 instructions: 20000001 cycles: 8466900 heartbeat IPC: 2.36263 cumulative IPC: 2.36214 (Simulation time: 0 hr 0 min 30 sec) 
Heartbeat CPU 0 instructions: 30000000 cycles: 12701844 heartbeat IPC: 2.36131 cumulative IPC: 2.36186 (Simulation time: 0 hr 0 min 45 sec) 
Heartbeat CPU 0 instructions: 40000002 cycles: 16936791 heartbeat IPC: 2.3613 cumulative IPC: 2.36172 (Simulation time: 0 hr 1 min 1 sec) 
Heartbeat CPU 0 instructions: 50000001 cycles: 21169833 heartbeat IPC: 2.36237 cumulative IPC: 2.36185 (Simulation time: 0 hr 1 min 16 sec) 

Warmup complete CPU 0 instructions: 50000001 cycles: 21169833 (Simulation time: 0 hr 1 min 16 sec) 

Heartbeat CPU 0 instructions: 60000000 cycles: 28367236 heartbeat IPC: 1.38939 cumulative IPC: 1.38939 (Simulation time: 0 hr 1 min 32 sec) 
Heartbeat CPU 0 instructions: 70000000 cycles: 35554012 heartbeat IPC: 1.39144 cumulative IPC: 1.39042 (Simulation time: 0 hr 1 min 49 sec) 
Heartbeat CPU 0 instructions: 80000002 cycles: 42745405 heartbeat IPC: 1.39055 cumulative IPC: 1.39046 (Simulation time: 0 hr 2 min 6 sec) 
Heartbeat CPU 0 instructions: 90000000 cycles: 49936274 heartbeat IPC: 1.39065 cumulative IPC: 1.39051 (Simulation time: 0 hr 2 min 22 sec) 
Heartbeat CPU 0 instructions: 100000001 cycles: 57132708 heartbeat IPC: 1.38958 cumulative IPC: 1.39032 (Simulation time: 0 hr 2 min 39 sec) 
Finished CPU 0 instructions: 50000000 cycles: 35962875 cumulative IPC: 1.39032 (Simulation time: 0 hr 2 min 39 sec) 

ChampSim completed all CPUs

Region of Interest Statistics

CPU 0 cumulative IPC: 1.39032 instructions: 50000000 cycles: 35962875
L1D TOTAL     ACCESS:   25032382  HIT:   24822124  MISS:     210258
L1D LOAD      ACCESS:    9967832  HIT:    9942332  MISS:      25500
L1D RFO       ACCESS:    5530161  HIT:    5529692  MISS:        469
L1D PREFETCH  ACCESS:    9534389  HIT:    9350100  MISS:     184289
L1D WRITEBACK ACCESS:          0  HIT:          0  MISS:          0
L1D PREFETCH  REQUESTED:    9969751  ISSUED:    9560738  USEFUL:     166614  USELESS:      17685
L1D AVERAGE MISS LATENCY: 16.6903 cycles
L1I TOTAL     ACCESS:   29506773  HIT:   29506773  MISS:          0
L1I LOAD      ACCESS:    9446610  HIT:    9446610  MISS:          0
L1I RFO       ACCESS:          0  HIT:          0  MISS:          0
L1I PREFETCH  ACCESS:   20060163  HIT:   20060163  MISS:          0
L1I WRITEBACK ACCESS:          0  HIT:          0  MISS:          0
L1I PREFETCH  REQUESTED:   25989828  ISSUED:   25989828  USEFUL:          0  USELESS:          0
L1I AVERAGE MISS LATENCY: -nan cycles
L2C TOTAL     ACCESS:     737631  HIT:     727436  MISS:      10195
L2C LOAD      ACCESS:      25453  HIT:      24668  MISS:        785
L2C RFO       ACCESS:        467  HIT:        457  MISS:         10
L2C PREFETCH  ACCESS:     643993  HIT:     634593  MISS:       9400
L2C WRITEBACK ACCESS:      67718  HIT:      67718  MISS:          0
L2C PREFETCH  REQUESTED:     580847  ISSUED:     579223  USEFUL:        727  USELESS:       8792
L2C AVERAGE MISS LATENCY: 42.0789 cycles
LLC TOTAL     ACCESS:      81917  HIT:      70553  MISS:      11364
LLC LOAD      ACCESS:        785  HIT:        303  MISS:        482
LLC RFO       ACCESS:         10  HIT:         10  MISS:          0
LLC PREFETCH  ACCESS:      80879  HIT:      69997  MISS:      10882
LLC WRITEBACK ACCESS:        243  HIT:        243  MISS:          0
LLC PREFETCH  REQUESTED:          0  ISSUED:          0  USEFUL:        184  USELESS:        199
LLC AVERAGE MISS LATENCY: 89.9701 cycles
Major fault: 0 Minor fault: 936
CPU 0 L1I EPI prefetcher final stats
CPU 0 L1D next line prefetcher final stats

DRAM Statistics
 CHANNEL 0
 RQ ROW_BUFFER_HIT:      10228  ROW_BUFFER_MISS:       1136
 DBUS_CONGESTED:       5971
 WQ ROW_BUFFER_HIT:          0  ROW_BUFFER_MISS:          2  FULL:          0

 AVG_CONGESTED_CYCLE: 6

CPU 0 Branch Prediction Accuracy: 99.9754% MPKI: 0.0238 Average ROB Occupancy at Mispredict: 240.129

Branch types
NOT_BRANCH: 45155624 90.3112%
BRANCH_DIRECT_JUMP: 415547 0.831094%
BRANCH_INDIRECT: 35 7e-05%
BRANCH_CONDITIONAL: 3322932 6.64586%
BRANCH_DIRECT_CALL: 552927 1.10585%
BRANCH_INDIRECT_CALL: 0 0%
BRANCH_RETURN: 552927 1.10585%
BRANCH_OTHER: 0 0%

