Initialize SIGNATURE TABLE
ST_SET: 1
ST_WAY: 256
ST_TAG_BIT: 16
ST_TAG_MASK: ffff

Initialize PATTERN TABLE
PT_SET: 512
PT_WAY: 4
SIG_DELTA_BIT: 7
C_SIG_BIT: 4
C_DELTA_BIT: 4

Initialize PREFETCH FILTER
FILTER_SET: 1024

*** ChampSim Multicore Out-of-Order Simulator ***

Warmup Instructions: 50000000
Simulation Instructions: 50000000
Number of CPUs: 1
LLC sets: 2048
LLC ways: 16
Off-chip DRAM Size: 4096 MB Channels: 1 Width: 64-bit Data Rate: 3200 MT/s

CPU 0 runs /home/ykhodke/ChampSim/dpc3_traces/client_007.champsimtrace.xz
CPU 0 EPI prefetcher
CPU 0 L1D next line prefetcher
Heartbeat CPU 0 instructions: 10000001 cycles: 3641660 heartbeat IPC: 2.746 cumulative IPC: 2.746 (Simulation time: 0 hr 0 min 16 sec) 
Heartbeat CPU 0 instructions: 20000003 cycles: 7032798 heartbeat IPC: 2.94886 cumulative IPC: 2.84382 (Simulation time: 0 hr 0 min 31 sec) 
Heartbeat CPU 0 instructions: 30000000 cycles: 10903686 heartbeat IPC: 2.58339 cumulative IPC: 2.75136 (Simulation time: 0 hr 0 min 49 sec) 
Heartbeat CPU 0 instructions: 40000003 cycles: 15063679 heartbeat IPC: 2.40385 cumulative IPC: 2.65539 (Simulation time: 0 hr 1 min 6 sec) 
Heartbeat CPU 0 instructions: 50000002 cycles: 18467953 heartbeat IPC: 2.93748 cumulative IPC: 2.70739 (Simulation time: 0 hr 1 min 21 sec) 

Warmup complete CPU 0 instructions: 50000002 cycles: 18467953 (Simulation time: 0 hr 1 min 21 sec) 

Heartbeat CPU 0 instructions: 60000003 cycles: 25345419 heartbeat IPC: 1.45402 cumulative IPC: 1.45402 (Simulation time: 0 hr 1 min 38 sec) 
Heartbeat CPU 0 instructions: 70000003 cycles: 34186018 heartbeat IPC: 1.13115 cumulative IPC: 1.27242 (Simulation time: 0 hr 1 min 57 sec) 
Heartbeat CPU 0 instructions: 80000002 cycles: 39489385 heartbeat IPC: 1.88559 cumulative IPC: 1.42711 (Simulation time: 0 hr 2 min 9 sec) 
Heartbeat CPU 0 instructions: 90000002 cycles: 47076374 heartbeat IPC: 1.31805 cumulative IPC: 1.39819 (Simulation time: 0 hr 2 min 26 sec) 
Heartbeat CPU 0 instructions: 100000002 cycles: 56000927 heartbeat IPC: 1.1205 cumulative IPC: 1.33216 (Simulation time: 0 hr 2 min 41 sec) 
Finished CPU 0 instructions: 50000000 cycles: 37532974 cumulative IPC: 1.33216 (Simulation time: 0 hr 2 min 41 sec) 

ChampSim completed all CPUs

Region of Interest Statistics

CPU 0 cumulative IPC: 1.33216 instructions: 50000000 cycles: 37532974
L1D TOTAL     ACCESS:   21189562  HIT:   20020477  MISS:    1169085
L1D LOAD      ACCESS:    8365442  HIT:    7825997  MISS:     539445
L1D RFO       ACCESS:    4868596  HIT:    4777534  MISS:      91062
L1D PREFETCH  ACCESS:    7955524  HIT:    7416946  MISS:     538578
L1D WRITEBACK ACCESS:          0  HIT:          0  MISS:          0
L1D PREFETCH  REQUESTED:    8417342  ISSUED:    8173383  USEFUL:     158116  USELESS:     380478
L1D AVERAGE MISS LATENCY: 34.4626 cycles
L1I TOTAL     ACCESS:   27949145  HIT:   26921512  MISS:    1027633
L1I LOAD      ACCESS:    9122535  HIT:    9111595  MISS:      10940
L1I RFO       ACCESS:          0  HIT:          0  MISS:          0
L1I PREFETCH  ACCESS:   18826610  HIT:   17809917  MISS:    1016693
L1I WRITEBACK ACCESS:          0  HIT:          0  MISS:          0
L1I PREFETCH  REQUESTED:   21986547  ISSUED:   21986547  USEFUL:     843665  USELESS:     173019
L1I AVERAGE MISS LATENCY: 16.9477 cycles
L2C TOTAL     ACCESS:    3153648  HIT:    2946760  MISS:     206888
L2C LOAD      ACCESS:     519647  HIT:     450321  MISS:      69326
L2C RFO       ACCESS:      89498  HIT:      47922  MISS:      41576
L2C PREFETCH  ACCESS:    2216824  HIT:    2120956  MISS:      95868
L2C WRITEBACK ACCESS:     327679  HIT:     327561  MISS:        118
L2C PREFETCH  REQUESTED:    2609752  ISSUED:    2602401  USEFUL:       8923  USELESS:      87092
L2C AVERAGE MISS LATENCY: 125.608 cycles
LLC TOTAL     ACCESS:     993229  HIT:     825074  MISS:     168155
LLC LOAD      ACCESS:      69230  HIT:      34534  MISS:      34696
LLC RFO       ACCESS:      41576  HIT:       7210  MISS:      34366
LLC PREFETCH  ACCESS:     807928  HIT:     709148  MISS:      98780
LLC WRITEBACK ACCESS:      74495  HIT:      74182  MISS:        313
LLC PREFETCH  REQUESTED:          0  ISSUED:          0  USEFUL:      18781  USELESS:      80910
LLC AVERAGE MISS LATENCY: 183.992 cycles
Major fault: 0 Minor fault: 4405
CPU 0 L1I EPI prefetcher final stats
CPU 0 L1D next line prefetcher final stats

DRAM Statistics
 CHANNEL 0
 RQ ROW_BUFFER_HIT:      35586  ROW_BUFFER_MISS:     132246
 DBUS_CONGESTED:      94444
 WQ ROW_BUFFER_HIT:      13020  ROW_BUFFER_MISS:      45508  FULL:          0

 AVG_CONGESTED_CYCLE: 5

CPU 0 Branch Prediction Accuracy: 98.8607% MPKI: 1.8623 Average ROB Occupancy at Mispredict: 113.92

Branch types
NOT_BRANCH: 41826773 83.6535%
BRANCH_DIRECT_JUMP: 735330 1.47066%
BRANCH_INDIRECT: 269194 0.538388%
BRANCH_CONDITIONAL: 5957947 11.9159%
BRANCH_DIRECT_CALL: 368758 0.737516%
BRANCH_INDIRECT_CALL: 226975 0.45395%
BRANCH_RETURN: 614696 1.22939%
BRANCH_OTHER: 0 0%

