Initialize SIGNATURE TABLE
ST_SET: 1
ST_WAY: 256
ST_TAG_BIT: 16
ST_TAG_MASK: ffff

Initialize PATTERN TABLE
PT_SET: 512
PT_WAY: 4
SIG_DELTA_BIT: 7
C_SIG_BIT: 4
C_DELTA_BIT: 4

Initialize PREFETCH FILTER
FILTER_SET: 1024

*** ChampSim Multicore Out-of-Order Simulator ***

Warmup Instructions: 50000000
Simulation Instructions: 50000000
Number of CPUs: 1
LLC sets: 2048
LLC ways: 16
Off-chip DRAM Size: 4096 MB Channels: 1 Width: 64-bit Data Rate: 3200 MT/s

CPU 0 runs /home/ykhodke/ChampSim/dpc3_traces/server_026.champsimtrace.xz
CPU 0 EPI prefetcher
CPU 0 L1D next line prefetcher
Heartbeat CPU 0 instructions: 10000000 cycles: 3524847 heartbeat IPC: 2.837 cumulative IPC: 2.837 (Simulation time: 0 hr 0 min 18 sec) 
Heartbeat CPU 0 instructions: 20000002 cycles: 7055002 heartbeat IPC: 2.83274 cumulative IPC: 2.83487 (Simulation time: 0 hr 0 min 37 sec) 
Heartbeat CPU 0 instructions: 30000000 cycles: 10575804 heartbeat IPC: 2.84026 cumulative IPC: 2.83666 (Simulation time: 0 hr 0 min 55 sec) 
Heartbeat CPU 0 instructions: 40000003 cycles: 14104957 heartbeat IPC: 2.83354 cumulative IPC: 2.83588 (Simulation time: 0 hr 1 min 13 sec) 
Heartbeat CPU 0 instructions: 50000000 cycles: 17627366 heartbeat IPC: 2.83897 cumulative IPC: 2.8365 (Simulation time: 0 hr 1 min 31 sec) 

Warmup complete CPU 0 instructions: 50000004 cycles: 17627367 (Simulation time: 0 hr 1 min 31 sec) 

*** Reached end of trace for Core: 0 Repeating trace: /home/ykhodke/ChampSim/dpc3_traces/server_026.champsimtrace.xz
Heartbeat CPU 0 instructions: 60000000 cycles: 24559890 heartbeat IPC: 1.44248 cumulative IPC: 1.44248 (Simulation time: 0 hr 1 min 51 sec) 
Heartbeat CPU 0 instructions: 70000003 cycles: 31370920 heartbeat IPC: 1.46821 cumulative IPC: 1.45523 (Simulation time: 0 hr 2 min 10 sec) 
Heartbeat CPU 0 instructions: 80000002 cycles: 38275689 heartbeat IPC: 1.44827 cumulative IPC: 1.4529 (Simulation time: 0 hr 2 min 29 sec) 
Heartbeat CPU 0 instructions: 90000002 cycles: 45088979 heartbeat IPC: 1.46772 cumulative IPC: 1.45658 (Simulation time: 0 hr 2 min 48 sec) 
Heartbeat CPU 0 instructions: 100000000 cycles: 51987284 heartbeat IPC: 1.44963 cumulative IPC: 1.45518 (Simulation time: 0 hr 3 min 7 sec) 
Finished CPU 0 instructions: 50000000 cycles: 34359918 cumulative IPC: 1.45518 (Simulation time: 0 hr 3 min 7 sec) 

ChampSim completed all CPUs

Region of Interest Statistics

CPU 0 cumulative IPC: 1.45518 instructions: 50000000 cycles: 34359918
L1D TOTAL     ACCESS:   19765323  HIT:   18120185  MISS:    1645138
L1D LOAD      ACCESS:    6929662  HIT:    6199945  MISS:     729717
L1D RFO       ACCESS:    6243256  HIT:    5956391  MISS:     286865
L1D PREFETCH  ACCESS:    6592405  HIT:    5963849  MISS:     628556
L1D WRITEBACK ACCESS:          0  HIT:          0  MISS:          0
L1D PREFETCH  REQUESTED:    6977504  ISSUED:    6834820  USEFUL:     150739  USELESS:     477827
L1D AVERAGE MISS LATENCY: 24.0825 cycles
L1I TOTAL     ACCESS:   28539260  HIT:   25115703  MISS:    3423557
L1I LOAD      ACCESS:    9496355  HIT:    9436029  MISS:      60326
L1I RFO       ACCESS:          0  HIT:          0  MISS:          0
L1I PREFETCH  ACCESS:   19042905  HIT:   15679674  MISS:    3363231
L1I WRITEBACK ACCESS:          0  HIT:          0  MISS:          0
L1I PREFETCH  REQUESTED:   23995398  ISSUED:   23995398  USEFUL:    2742131  USELESS:     621183
L1I AVERAGE MISS LATENCY: 18.8573 cycles
L2C TOTAL     ACCESS:    6990554  HIT:    6199552  MISS:     791002
L2C LOAD      ACCESS:     711965  HIT:     566095  MISS:     145870
L2C RFO       ACCESS:     284639  HIT:     188102  MISS:      96537
L2C PREFETCH  ACCESS:    5432799  HIT:    4888178  MISS:     544621
L2C WRITEBACK ACCESS:     561151  HIT:     557177  MISS:       3974
L2C PREFETCH  REQUESTED:    6028905  ISSUED:    6013062  USEFUL:      15323  USELESS:     528786
L2C AVERAGE MISS LATENCY: 39.0056 cycles
LLC TOTAL     ACCESS:    2553315  HIT:    2513742  MISS:      39573
LLC LOAD      ACCESS:     145604  HIT:     141929  MISS:       3675
LLC RFO       ACCESS:      96529  HIT:      81801  MISS:      14728
LLC PREFETCH  ACCESS:    2147020  HIT:    2126111  MISS:      20909
LLC WRITEBACK ACCESS:     164162  HIT:     163901  MISS:        261
LLC PREFETCH  REQUESTED:          0  ISSUED:          0  USEFUL:       1117  USELESS:      19207
LLC AVERAGE MISS LATENCY: 184.757 cycles
Major fault: 0 Minor fault: 2168
CPU 0 L1I EPI prefetcher final stats
CPU 0 L1D next line prefetcher final stats

DRAM Statistics
 CHANNEL 0
 RQ ROW_BUFFER_HIT:      13386  ROW_BUFFER_MISS:      25916
 DBUS_CONGESTED:      24679
 WQ ROW_BUFFER_HIT:       1564  ROW_BUFFER_MISS:      14999  FULL:          0

 AVG_CONGESTED_CYCLE: 6

CPU 0 Branch Prediction Accuracy: 99.822% MPKI: 0.32584 Average ROB Occupancy at Mispredict: 206.183

Branch types
NOT_BRANCH: 40848585 81.6972%
BRANCH_DIRECT_JUMP: 522045 1.04409%
BRANCH_INDIRECT: 204034 0.408068%
BRANCH_CONDITIONAL: 6212965 12.4259%
BRANCH_DIRECT_CALL: 932393 1.86479%
BRANCH_INDIRECT_CALL: 173764 0.347528%
BRANCH_RETURN: 1106152 2.2123%
BRANCH_OTHER: 0 0%

