Initialize SIGNATURE TABLE
ST_SET: 1
ST_WAY: 256
ST_TAG_BIT: 16
ST_TAG_MASK: ffff

Initialize PATTERN TABLE
PT_SET: 512
PT_WAY: 4
SIG_DELTA_BIT: 7
C_SIG_BIT: 4
C_DELTA_BIT: 4

Initialize PREFETCH FILTER
FILTER_SET: 1024

*** ChampSim Multicore Out-of-Order Simulator ***

Warmup Instructions: 50000000
Simulation Instructions: 50000000
Number of CPUs: 1
LLC sets: 2048
LLC ways: 16
Off-chip DRAM Size: 4096 MB Channels: 1 Width: 64-bit Data Rate: 3200 MT/s

CPU 0 runs /home/ykhodke/ChampSim/dpc3_traces/server_012.champsimtrace.xz
CPU 0 EPI prefetcher
CPU 0 L1D next line prefetcher
Heartbeat CPU 0 instructions: 10000002 cycles: 3195992 heartbeat IPC: 3.12892 cumulative IPC: 3.12892 (Simulation time: 0 hr 0 min 17 sec) 
Heartbeat CPU 0 instructions: 20000002 cycles: 6395010 heartbeat IPC: 3.12596 cumulative IPC: 3.12744 (Simulation time: 0 hr 0 min 34 sec) 
Heartbeat CPU 0 instructions: 30000001 cycles: 9594944 heartbeat IPC: 3.12506 cumulative IPC: 3.12665 (Simulation time: 0 hr 0 min 50 sec) 
Heartbeat CPU 0 instructions: 40000000 cycles: 12800335 heartbeat IPC: 3.11974 cumulative IPC: 3.12492 (Simulation time: 0 hr 1 min 7 sec) 
Heartbeat CPU 0 instructions: 50000003 cycles: 15998953 heartbeat IPC: 3.12635 cumulative IPC: 3.1252 (Simulation time: 0 hr 1 min 24 sec) 

Warmup complete CPU 0 instructions: 50000003 cycles: 15998953 (Simulation time: 0 hr 1 min 24 sec) 

Heartbeat CPU 0 instructions: 60000002 cycles: 23040348 heartbeat IPC: 1.42017 cumulative IPC: 1.42017 (Simulation time: 0 hr 1 min 40 sec) 
Heartbeat CPU 0 instructions: 70000000 cycles: 30065797 heartbeat IPC: 1.4234 cumulative IPC: 1.42178 (Simulation time: 0 hr 1 min 57 sec) 
Heartbeat CPU 0 instructions: 80000003 cycles: 37103183 heartbeat IPC: 1.42098 cumulative IPC: 1.42152 (Simulation time: 0 hr 2 min 14 sec) 
Heartbeat CPU 0 instructions: 90000001 cycles: 44382579 heartbeat IPC: 1.37374 cumulative IPC: 1.40926 (Simulation time: 0 hr 2 min 31 sec) 
Heartbeat CPU 0 instructions: 100000002 cycles: 51550303 heartbeat IPC: 1.39514 cumulative IPC: 1.40642 (Simulation time: 0 hr 2 min 47 sec) 
Finished CPU 0 instructions: 50000001 cycles: 35551351 cumulative IPC: 1.40642 (Simulation time: 0 hr 2 min 47 sec) 

ChampSim completed all CPUs

Region of Interest Statistics

CPU 0 cumulative IPC: 1.40642 instructions: 50000001 cycles: 35551351
L1D TOTAL     ACCESS:   17273808  HIT:   16231066  MISS:    1042742
L1D LOAD      ACCESS:    6277509  HIT:    5789396  MISS:     488113
L1D RFO       ACCESS:    4960812  HIT:    4879052  MISS:      81760
L1D PREFETCH  ACCESS:    6035487  HIT:    5562618  MISS:     472869
L1D WRITEBACK ACCESS:          0  HIT:          0  MISS:          0
L1D PREFETCH  REQUESTED:    6311087  ISSUED:    6212236  USEFUL:     132354  USELESS:     340536
L1D AVERAGE MISS LATENCY: 40.3346 cycles
L1I TOTAL     ACCESS:   32917897  HIT:   31099289  MISS:    1818608
L1I LOAD      ACCESS:    8739602  HIT:    8688768  MISS:      50834
L1I RFO       ACCESS:          0  HIT:          0  MISS:          0
L1I PREFETCH  ACCESS:   24178295  HIT:   22410521  MISS:    1767774
L1I WRITEBACK ACCESS:          0  HIT:          0  MISS:          0
L1I PREFETCH  REQUESTED:   32293368  ISSUED:   32293368  USEFUL:    1337206  USELESS:     430500
L1I AVERAGE MISS LATENCY: 32.772 cycles
L2C TOTAL     ACCESS:    3663517  HIT:    2390179  MISS:    1273338
L2C LOAD      ACCESS:     489078  HIT:     239907  MISS:     249171
L2C RFO       ACCESS:      80620  HIT:      31523  MISS:      49097
L2C PREFETCH  ACCESS:    2818335  HIT:    1844747  MISS:     973588
L2C WRITEBACK ACCESS:     275484  HIT:     274002  MISS:       1482
L2C PREFETCH  REQUESTED:    3339623  ISSUED:    3334479  USEFUL:      24751  USELESS:     948444
L2C AVERAGE MISS LATENCY: 46.7202 cycles
LLC TOTAL     ACCESS:    2345928  HIT:    2198694  MISS:     147234
LLC LOAD      ACCESS:     249025  HIT:     230150  MISS:      18875
LLC RFO       ACCESS:      49095  HIT:      39315  MISS:       9780
LLC PREFETCH  ACCESS:    1882019  HIT:    1763793  MISS:     118226
LLC WRITEBACK ACCESS:     165789  HIT:     165436  MISS:        353
LLC PREFETCH  REQUESTED:          0  ISSUED:          0  USEFUL:       9945  USELESS:     107861
LLC AVERAGE MISS LATENCY: 175.469 cycles
Major fault: 0 Minor fault: 5608
CPU 0 L1I EPI prefetcher final stats
CPU 0 L1D next line prefetcher final stats

DRAM Statistics
 CHANNEL 0
 RQ ROW_BUFFER_HIT:      22580  ROW_BUFFER_MISS:     124273
 DBUS_CONGESTED:      67962
 WQ ROW_BUFFER_HIT:      10966  ROW_BUFFER_MISS:      48463  FULL:          0

 AVG_CONGESTED_CYCLE: 5

CPU 0 Branch Prediction Accuracy: 99.4607% MPKI: 1.00288 Average ROB Occupancy at Mispredict: 127.415

Branch types
NOT_BRANCH: 40701152 81.4023%
BRANCH_DIRECT_JUMP: 469810 0.93962%
BRANCH_INDIRECT: 153732 0.307464%
BRANCH_CONDITIONAL: 6944088 13.8882%
BRANCH_DIRECT_CALL: 679880 1.35976%
BRANCH_INDIRECT_CALL: 168745 0.33749%
BRANCH_RETURN: 882493 1.76499%
BRANCH_OTHER: 0 0%

