Initialize SIGNATURE TABLE
ST_SET: 1
ST_WAY: 256
ST_TAG_BIT: 16
ST_TAG_MASK: ffff

Initialize PATTERN TABLE
PT_SET: 512
PT_WAY: 4
SIG_DELTA_BIT: 7
C_SIG_BIT: 4
C_DELTA_BIT: 4

Initialize PREFETCH FILTER
FILTER_SET: 1024

*** ChampSim Multicore Out-of-Order Simulator ***

Warmup Instructions: 50000000
Simulation Instructions: 50000000
Number of CPUs: 1
LLC sets: 2048
LLC ways: 16
Off-chip DRAM Size: 4096 MB Channels: 1 Width: 64-bit Data Rate: 3200 MT/s

CPU 0 runs /home/ykhodke/ChampSim/dpc3_traces/server_025.champsimtrace.xz
CPU 0 EPI prefetcher
CPU 0 L1D next line prefetcher
Heartbeat CPU 0 instructions: 10000003 cycles: 3524469 heartbeat IPC: 2.83731 cumulative IPC: 2.83731 (Simulation time: 0 hr 0 min 18 sec) 
Heartbeat CPU 0 instructions: 20000000 cycles: 7056804 heartbeat IPC: 2.83099 cumulative IPC: 2.83414 (Simulation time: 0 hr 0 min 36 sec) 
Heartbeat CPU 0 instructions: 30000001 cycles: 10581347 heartbeat IPC: 2.83725 cumulative IPC: 2.83518 (Simulation time: 0 hr 0 min 54 sec) 
Heartbeat CPU 0 instructions: 40000003 cycles: 14111970 heartbeat IPC: 2.83236 cumulative IPC: 2.83447 (Simulation time: 0 hr 1 min 12 sec) 
Heartbeat CPU 0 instructions: 50000001 cycles: 17641051 heartbeat IPC: 2.8336 cumulative IPC: 2.8343 (Simulation time: 0 hr 1 min 30 sec) 

Warmup complete CPU 0 instructions: 50000001 cycles: 17641051 (Simulation time: 0 hr 1 min 30 sec) 

Heartbeat CPU 0 instructions: 60000002 cycles: 24402146 heartbeat IPC: 1.47905 cumulative IPC: 1.47905 (Simulation time: 0 hr 1 min 49 sec) 
Heartbeat CPU 0 instructions: 70000000 cycles: 31274227 heartbeat IPC: 1.45516 cumulative IPC: 1.46701 (Simulation time: 0 hr 2 min 9 sec) 
Heartbeat CPU 0 instructions: 80000002 cycles: 38056392 heartbeat IPC: 1.47446 cumulative IPC: 1.46948 (Simulation time: 0 hr 2 min 28 sec) 
Heartbeat CPU 0 instructions: 90000001 cycles: 44516057 heartbeat IPC: 1.54807 cumulative IPC: 1.48837 (Simulation time: 0 hr 2 min 47 sec) 
Heartbeat CPU 0 instructions: 100000003 cycles: 50700770 heartbeat IPC: 1.61689 cumulative IPC: 1.51241 (Simulation time: 0 hr 3 min 6 sec) 
Finished CPU 0 instructions: 50000002 cycles: 33059719 cumulative IPC: 1.51241 (Simulation time: 0 hr 3 min 6 sec) 

ChampSim completed all CPUs

Region of Interest Statistics

CPU 0 cumulative IPC: 1.51241 instructions: 50000002 cycles: 33059719
L1D TOTAL     ACCESS:   19969926  HIT:   18544563  MISS:    1425363
L1D LOAD      ACCESS:    6954329  HIT:    6334826  MISS:     619503
L1D RFO       ACCESS:    6374916  HIT:    6126561  MISS:     248355
L1D PREFETCH  ACCESS:    6640681  HIT:    6083176  MISS:     557505
L1D WRITEBACK ACCESS:          0  HIT:          0  MISS:          0
L1D PREFETCH  REQUESTED:    6994962  ISSUED:    6820782  USEFUL:     130277  USELESS:     427221
L1D AVERAGE MISS LATENCY: 23.0434 cycles
L1I TOTAL     ACCESS:   30407963  HIT:   27376797  MISS:    3031166
L1I LOAD      ACCESS:    9499144  HIT:    9442084  MISS:      57060
L1I RFO       ACCESS:          0  HIT:          0  MISS:          0
L1I PREFETCH  ACCESS:   20908819  HIT:   17934713  MISS:    2974106
L1I WRITEBACK ACCESS:          0  HIT:          0  MISS:          0
L1I PREFETCH  REQUESTED:   27071930  ISSUED:   27071930  USEFUL:    2431763  USELESS:     542381
L1I AVERAGE MISS LATENCY: 18.912 cycles
L2C TOTAL     ACCESS:    6116884  HIT:    5457369  MISS:     659515
L2C LOAD      ACCESS:     617056  HIT:     509414  MISS:     107642
L2C RFO       ACCESS:     246772  HIT:     168603  MISS:      78169
L2C PREFETCH  ACCESS:    4756314  HIT:    4286791  MISS:     469523
L2C WRITEBACK ACCESS:     496742  HIT:     492561  MISS:       4181
L2C PREFETCH  REQUESTED:    5049448  ISSUED:    5036512  USEFUL:      10377  USELESS:     458602
L2C AVERAGE MISS LATENCY: 38.6245 cycles
LLC TOTAL     ACCESS:    2104435  HIT:    2072991  MISS:      31444
LLC LOAD      ACCESS:     107532  HIT:     104327  MISS:       3205
LLC RFO       ACCESS:      78160  HIT:      67446  MISS:      10714
LLC PREFETCH  ACCESS:    1789738  HIT:    1772414  MISS:      17324
LLC WRITEBACK ACCESS:     129005  HIT:     128804  MISS:        201
LLC PREFETCH  REQUESTED:          0  ISSUED:          0  USEFUL:       1217  USELESS:      14211
LLC AVERAGE MISS LATENCY: 180.275 cycles
Major fault: 0 Minor fault: 2458
CPU 0 L1I EPI prefetcher final stats
CPU 0 L1D next line prefetcher final stats

DRAM Statistics
 CHANNEL 0
 RQ ROW_BUFFER_HIT:       9596  ROW_BUFFER_MISS:      21640
 DBUS_CONGESTED:      19312
 WQ ROW_BUFFER_HIT:       1415  ROW_BUFFER_MISS:      12448  FULL:          0

 AVG_CONGESTED_CYCLE: 6

CPU 0 Branch Prediction Accuracy: 99.8142% MPKI: 0.34676 Average ROB Occupancy at Mispredict: 203.906

Branch types
NOT_BRANCH: 40668922 81.3378%
BRANCH_DIRECT_JUMP: 531701 1.0634%
BRANCH_INDIRECT: 199025 0.39805%
BRANCH_CONDITIONAL: 6211499 12.423%
BRANCH_DIRECT_CALL: 1010911 2.02182%
BRANCH_INDIRECT_CALL: 183501 0.367002%
BRANCH_RETURN: 1194416 2.38883%
BRANCH_OTHER: 0 0%

