Initialize SIGNATURE TABLE
ST_SET: 1
ST_WAY: 256
ST_TAG_BIT: 16
ST_TAG_MASK: ffff

Initialize PATTERN TABLE
PT_SET: 512
PT_WAY: 4
SIG_DELTA_BIT: 7
C_SIG_BIT: 4
C_DELTA_BIT: 4

Initialize PREFETCH FILTER
FILTER_SET: 1024

*** ChampSim Multicore Out-of-Order Simulator ***

Warmup Instructions: 50000000
Simulation Instructions: 50000000
Number of CPUs: 1
LLC sets: 2048
LLC ways: 16
Off-chip DRAM Size: 4096 MB Channels: 1 Width: 64-bit Data Rate: 3200 MT/s

CPU 0 runs /home/ykhodke/ChampSim/dpc3_traces/spec_perlbench_001.champsimtrace.xz
CPU 0 EPI prefetcher
CPU 0 L1D next line prefetcher
Heartbeat CPU 0 instructions: 10000000 cycles: 3276322 heartbeat IPC: 3.0522 cumulative IPC: 3.0522 (Simulation time: 0 hr 0 min 17 sec) 
Heartbeat CPU 0 instructions: 20000000 cycles: 6541733 heartbeat IPC: 3.0624 cumulative IPC: 3.05729 (Simulation time: 0 hr 0 min 35 sec) 
Heartbeat CPU 0 instructions: 30000002 cycles: 9859588 heartbeat IPC: 3.014 cumulative IPC: 3.04272 (Simulation time: 0 hr 0 min 54 sec) 
Heartbeat CPU 0 instructions: 40000002 cycles: 13115444 heartbeat IPC: 3.07139 cumulative IPC: 3.04984 (Simulation time: 0 hr 1 min 11 sec) 
Heartbeat CPU 0 instructions: 50000001 cycles: 16389416 heartbeat IPC: 3.05439 cumulative IPC: 3.05075 (Simulation time: 0 hr 1 min 28 sec) 

Warmup complete CPU 0 instructions: 50000001 cycles: 16389416 (Simulation time: 0 hr 1 min 28 sec) 

Heartbeat CPU 0 instructions: 60000001 cycles: 24567999 heartbeat IPC: 1.22271 cumulative IPC: 1.22271 (Simulation time: 0 hr 1 min 47 sec) 
Heartbeat CPU 0 instructions: 70000003 cycles: 32601304 heartbeat IPC: 1.24482 cumulative IPC: 1.23366 (Simulation time: 0 hr 2 min 6 sec) 
Heartbeat CPU 0 instructions: 80000000 cycles: 40964259 heartbeat IPC: 1.19575 cumulative IPC: 1.22076 (Simulation time: 0 hr 2 min 23 sec) 
Heartbeat CPU 0 instructions: 90000000 cycles: 46688494 heartbeat IPC: 1.74696 cumulative IPC: 1.32017 (Simulation time: 0 hr 2 min 39 sec) 
Heartbeat CPU 0 instructions: 100000002 cycles: 52553507 heartbeat IPC: 1.70503 cumulative IPC: 1.38259 (Simulation time: 0 hr 2 min 54 sec) 
Finished CPU 0 instructions: 50000001 cycles: 36164091 cumulative IPC: 1.38259 (Simulation time: 0 hr 2 min 54 sec) 

ChampSim completed all CPUs

Region of Interest Statistics

CPU 0 cumulative IPC: 1.38259 instructions: 50000001 cycles: 36164091
L1D TOTAL     ACCESS:   20669592  HIT:   20254497  MISS:     415095
L1D LOAD      ACCESS:    7164724  HIT:    6950877  MISS:     213847
L1D RFO       ACCESS:    6541885  HIT:    6523380  MISS:      18505
L1D PREFETCH  ACCESS:    6962983  HIT:    6780240  MISS:     182743
L1D WRITEBACK ACCESS:          0  HIT:          0  MISS:          0
L1D PREFETCH  REQUESTED:    7180268  ISSUED:    7063721  USEFUL:      55057  USELESS:     127681
L1D AVERAGE MISS LATENCY: 57.9551 cycles
L1I TOTAL     ACCESS:   42467957  HIT:   41644543  MISS:     823414
L1I LOAD      ACCESS:    9152723  HIT:    9111069  MISS:      41654
L1I RFO       ACCESS:          0  HIT:          0  MISS:          0
L1I PREFETCH  ACCESS:   33315234  HIT:   32533474  MISS:     781760
L1I WRITEBACK ACCESS:          0  HIT:          0  MISS:          0
L1I PREFETCH  REQUESTED:   44745379  ISSUED:   44745379  USEFUL:     439113  USELESS:     342715
L1I AVERAGE MISS LATENCY: 16.8648 cycles
L2C TOTAL     ACCESS:    1758139  HIT:    1588405  MISS:     169734
L2C LOAD      ACCESS:     235762  HIT:     157238  MISS:      78524
L2C RFO       ACCESS:      18259  HIT:      12774  MISS:       5485
L2C PREFETCH  ACCESS:    1425167  HIT:    1339822  MISS:      85345
L2C WRITEBACK ACCESS:      78951  HIT:      78571  MISS:        380
L2C PREFETCH  REQUESTED:    1278532  ISSUED:    1278452  USEFUL:       6302  USELESS:      79008
L2C AVERAGE MISS LATENCY: 118.136 cycles
LLC TOTAL     ACCESS:     419906  HIT:     276222  MISS:     143684
LLC LOAD      ACCESS:      78521  HIT:      30956  MISS:      47565
LLC RFO       ACCESS:       5485  HIT:       2469  MISS:       3016
LLC PREFETCH  ACCESS:     310221  HIT:     217607  MISS:      92614
LLC WRITEBACK ACCESS:      25679  HIT:      25190  MISS:        489
LLC PREFETCH  REQUESTED:          0  ISSUED:          0  USEFUL:      14559  USELESS:      77892
LLC AVERAGE MISS LATENCY: 160.736 cycles
Major fault: 0 Minor fault: 6367
CPU 0 L1I EPI prefetcher final stats
CPU 0 L1D next line prefetcher final stats

DRAM Statistics
 CHANNEL 0
 RQ ROW_BUFFER_HIT:      32536  ROW_BUFFER_MISS:     110657
 DBUS_CONGESTED:      59959
 WQ ROW_BUFFER_HIT:       4088  ROW_BUFFER_MISS:      13333  FULL:          0

 AVG_CONGESTED_CYCLE: 4

CPU 0 Branch Prediction Accuracy: 98.7418% MPKI: 2.47758 Average ROB Occupancy at Mispredict: 80.9182

Branch types
NOT_BRANCH: 40154100 80.3082%
BRANCH_DIRECT_JUMP: 817094 1.63419%
BRANCH_INDIRECT: 303787 0.607574%
BRANCH_CONDITIONAL: 7492103 14.9842%
BRANCH_DIRECT_CALL: 471777 0.943554%
BRANCH_INDIRECT_CALL: 144546 0.289092%
BRANCH_RETURN: 616324 1.23265%
BRANCH_OTHER: 0 0%

