Initialize SIGNATURE TABLE
ST_SET: 1
ST_WAY: 256
ST_TAG_BIT: 16
ST_TAG_MASK: ffff

Initialize PATTERN TABLE
PT_SET: 512
PT_WAY: 4
SIG_DELTA_BIT: 7
C_SIG_BIT: 4
C_DELTA_BIT: 4

Initialize PREFETCH FILTER
FILTER_SET: 1024

*** ChampSim Multicore Out-of-Order Simulator ***

Warmup Instructions: 50000000
Simulation Instructions: 50000000
Number of CPUs: 1
LLC sets: 2048
LLC ways: 16
Off-chip DRAM Size: 4096 MB Channels: 1 Width: 64-bit Data Rate: 3200 MT/s

CPU 0 runs /home/ykhodke/ChampSim/dpc3_traces/spec_gobmk_001.champsimtrace.xz
CPU 0 EPI prefetcher
CPU 0 L1D next line prefetcher
Heartbeat CPU 0 instructions: 10000003 cycles: 3507866 heartbeat IPC: 2.85074 cumulative IPC: 2.85074 (Simulation time: 0 hr 0 min 16 sec) 
Heartbeat CPU 0 instructions: 20000002 cycles: 6988788 heartbeat IPC: 2.8728 cumulative IPC: 2.86173 (Simulation time: 0 hr 0 min 32 sec) 
Heartbeat CPU 0 instructions: 30000002 cycles: 10508526 heartbeat IPC: 2.84112 cumulative IPC: 2.85483 (Simulation time: 0 hr 0 min 49 sec) 
Heartbeat CPU 0 instructions: 40000001 cycles: 14028511 heartbeat IPC: 2.84092 cumulative IPC: 2.85134 (Simulation time: 0 hr 1 min 5 sec) 
Heartbeat CPU 0 instructions: 50000001 cycles: 17569423 heartbeat IPC: 2.82413 cumulative IPC: 2.84585 (Simulation time: 0 hr 1 min 22 sec) 

Warmup complete CPU 0 instructions: 50000001 cycles: 17569423 (Simulation time: 0 hr 1 min 22 sec) 

Heartbeat CPU 0 instructions: 60000000 cycles: 26351370 heartbeat IPC: 1.1387 cumulative IPC: 1.1387 (Simulation time: 0 hr 1 min 39 sec) 
Heartbeat CPU 0 instructions: 70000002 cycles: 34794528 heartbeat IPC: 1.18439 cumulative IPC: 1.1611 (Simulation time: 0 hr 1 min 55 sec) 
Heartbeat CPU 0 instructions: 80000003 cycles: 43643930 heartbeat IPC: 1.13002 cumulative IPC: 1.15055 (Simulation time: 0 hr 2 min 12 sec) 
Heartbeat CPU 0 instructions: 90000001 cycles: 52170658 heartbeat IPC: 1.17278 cumulative IPC: 1.15603 (Simulation time: 0 hr 2 min 28 sec) 
Heartbeat CPU 0 instructions: 100000003 cycles: 61013518 heartbeat IPC: 1.13086 cumulative IPC: 1.1509 (Simulation time: 0 hr 2 min 45 sec) 
Finished CPU 0 instructions: 50000002 cycles: 43444095 cumulative IPC: 1.1509 (Simulation time: 0 hr 2 min 45 sec) 

ChampSim completed all CPUs

Region of Interest Statistics

CPU 0 cumulative IPC: 1.1509 instructions: 50000002 cycles: 43444095
L1D TOTAL     ACCESS:   17995761  HIT:   17616221  MISS:     379540
L1D LOAD      ACCESS:    7216377  HIT:    7082054  MISS:     134323
L1D RFO       ACCESS:    3701834  HIT:    3597270  MISS:     104564
L1D PREFETCH  ACCESS:    7077550  HIT:    6936897  MISS:     140653
L1D WRITEBACK ACCESS:          0  HIT:          0  MISS:          0
L1D PREFETCH  REQUESTED:    7221954  ISSUED:    7139226  USEFUL:      45948  USELESS:      94710
L1D AVERAGE MISS LATENCY: 34.2084 cycles
L1I TOTAL     ACCESS:   53142012  HIT:   51351261  MISS:    1790751
L1I LOAD      ACCESS:    8958518  HIT:    8874975  MISS:      83543
L1I RFO       ACCESS:          0  HIT:          0  MISS:          0
L1I PREFETCH  ACCESS:   44183494  HIT:   42476286  MISS:    1707208
L1I WRITEBACK ACCESS:          0  HIT:          0  MISS:          0
L1I PREFETCH  REQUESTED:   62181093  ISSUED:   62181093  USEFUL:     737719  USELESS:     969459
L1I AVERAGE MISS LATENCY: 15.1589 cycles
L2C TOTAL     ACCESS:    3436681  HIT:    3304316  MISS:     132365
L2C LOAD      ACCESS:     180638  HIT:     145407  MISS:      35231
L2C RFO       ACCESS:     104202  HIT:      69648  MISS:      34554
L2C PREFETCH  ACCESS:    3012545  HIT:    2950098  MISS:      62447
L2C WRITEBACK ACCESS:     139296  HIT:     139163  MISS:        133
L2C PREFETCH  REQUESTED:    2898385  ISSUED:    2897131  USEFUL:       4784  USELESS:      57996
L2C AVERAGE MISS LATENCY: 64.7214 cycles
LLC TOTAL     ACCESS:     297420  HIT:     255778  MISS:      41642
LLC LOAD      ACCESS:      35229  HIT:      27069  MISS:       8160
LLC RFO       ACCESS:      34553  HIT:      27009  MISS:       7544
LLC PREFETCH  ACCESS:     182190  HIT:     156540  MISS:      25650
LLC WRITEBACK ACCESS:      45448  HIT:      45160  MISS:        288
LLC PREFETCH  REQUESTED:          0  ISSUED:          0  USEFUL:       1452  USELESS:      22228
LLC AVERAGE MISS LATENCY: 178.332 cycles
Major fault: 0 Minor fault: 4158
CPU 0 L1I EPI prefetcher final stats
CPU 0 L1D next line prefetcher final stats

DRAM Statistics
 CHANNEL 0
 RQ ROW_BUFFER_HIT:       5400  ROW_BUFFER_MISS:      35952
 DBUS_CONGESTED:      26552
 WQ ROW_BUFFER_HIT:       1597  ROW_BUFFER_MISS:      16231  FULL:          0

 AVG_CONGESTED_CYCLE: 5

CPU 0 Branch Prediction Accuracy: 94.7729% MPKI: 9.72684 Average ROB Occupancy at Mispredict: 54.045

Branch types
NOT_BRANCH: 40695382 81.3908%
BRANCH_DIRECT_JUMP: 422107 0.844214%
BRANCH_INDIRECT: 65 0.00013%
BRANCH_CONDITIONAL: 8105006 16.21%
BRANCH_DIRECT_CALL: 374913 0.749826%
BRANCH_INDIRECT_CALL: 13657 0.027314%
BRANCH_RETURN: 388556 0.777112%
BRANCH_OTHER: 0 0%

