Initialize SIGNATURE TABLE
ST_SET: 1
ST_WAY: 256
ST_TAG_BIT: 16
ST_TAG_MASK: ffff

Initialize PATTERN TABLE
PT_SET: 512
PT_WAY: 4
SIG_DELTA_BIT: 7
C_SIG_BIT: 4
C_DELTA_BIT: 4

Initialize PREFETCH FILTER
FILTER_SET: 1024

*** ChampSim Multicore Out-of-Order Simulator ***

Warmup Instructions: 50000000
Simulation Instructions: 50000000
Number of CPUs: 1
LLC sets: 2048
LLC ways: 16
Off-chip DRAM Size: 4096 MB Channels: 1 Width: 64-bit Data Rate: 3200 MT/s

CPU 0 runs /home/ykhodke/ChampSim/dpc3_traces/600.perlbench_s-210B.champsimtrace.xz
L1I D-JOLT instruction prefetcher has been constructed!
CPU 0 L1D next line prefetcher
Heartbeat CPU 0 instructions: 10000000 cycles: 3913424 heartbeat IPC: 2.55531 cumulative IPC: 2.55531 (Simulation time: 0 hr 0 min 14 sec) 
Heartbeat CPU 0 instructions: 20000000 cycles: 7798242 heartbeat IPC: 2.57412 cumulative IPC: 2.56468 (Simulation time: 0 hr 0 min 27 sec) 
Heartbeat CPU 0 instructions: 30000002 cycles: 11686405 heartbeat IPC: 2.57191 cumulative IPC: 2.56709 (Simulation time: 0 hr 0 min 41 sec) 
Heartbeat CPU 0 instructions: 40000000 cycles: 15533206 heartbeat IPC: 2.59956 cumulative IPC: 2.57513 (Simulation time: 0 hr 0 min 54 sec) 
Heartbeat CPU 0 instructions: 50000003 cycles: 19428617 heartbeat IPC: 2.56712 cumulative IPC: 2.57352 (Simulation time: 0 hr 1 min 8 sec) 

Warmup complete CPU 0 instructions: 50000003 cycles: 19428617 (Simulation time: 0 hr 1 min 8 sec) 

Heartbeat CPU 0 instructions: 60000002 cycles: 26262615 heartbeat IPC: 1.46327 cumulative IPC: 1.46327 (Simulation time: 0 hr 1 min 22 sec) 
Heartbeat CPU 0 instructions: 70000000 cycles: 31029935 heartbeat IPC: 2.09761 cumulative IPC: 1.72394 (Simulation time: 0 hr 1 min 35 sec) 
Heartbeat CPU 0 instructions: 80000001 cycles: 36009362 heartbeat IPC: 2.00826 cumulative IPC: 1.80933 (Simulation time: 0 hr 1 min 48 sec) 
Heartbeat CPU 0 instructions: 90000002 cycles: 42805581 heartbeat IPC: 1.47141 cumulative IPC: 1.71109 (Simulation time: 0 hr 2 min 2 sec) 
Heartbeat CPU 0 instructions: 100000003 cycles: 49687854 heartbeat IPC: 1.45301 cumulative IPC: 1.65239 (Simulation time: 0 hr 2 min 16 sec) 
Finished CPU 0 instructions: 50000000 cycles: 30259237 cumulative IPC: 1.65239 (Simulation time: 0 hr 2 min 16 sec) 

ChampSim completed all CPUs

Region of Interest Statistics

CPU 0 cumulative IPC: 1.65239 instructions: 50000000 cycles: 30259237
L1D TOTAL     ACCESS:   24915993  HIT:   24908951  MISS:       7042
L1D LOAD      ACCESS:    7125293  HIT:    7122753  MISS:       2540
L1D RFO       ACCESS:   10824332  HIT:   10824082  MISS:        250
L1D PREFETCH  ACCESS:    6966368  HIT:    6962116  MISS:       4252
L1D WRITEBACK ACCESS:          0  HIT:          0  MISS:          0
L1D PREFETCH  REQUESTED:    7125535  ISSUED:    7084995  USEFUL:       2504  USELESS:       1740
L1D AVERAGE MISS LATENCY: 62.3694 cycles
L1I TOTAL     ACCESS:   10566731  HIT:   10561416  MISS:       5315
L1I LOAD      ACCESS:    7974760  HIT:    7974495  MISS:        265
L1I RFO       ACCESS:          0  HIT:          0  MISS:          0
L1I PREFETCH  ACCESS:    2591971  HIT:    2586921  MISS:       5050
L1I WRITEBACK ACCESS:          0  HIT:          0  MISS:          0
L1I PREFETCH  REQUESTED:    2608377  ISSUED:    2608367  USEFUL:       3036  USELESS:       1958
L1I AVERAGE MISS LATENCY: 15.3016 cycles
L2C TOTAL     ACCESS:      19221  HIT:      16772  MISS:       2449
L2C LOAD      ACCESS:       2730  HIT:       1525  MISS:       1205
L2C RFO       ACCESS:        250  HIT:         66  MISS:        184
L2C PREFETCH  ACCESS:      15618  HIT:      14559  MISS:       1059
L2C WRITEBACK ACCESS:        623  HIT:        622  MISS:          1
L2C PREFETCH  REQUESTED:      12432  ISSUED:      12432  USEFUL:         63  USELESS:        242
L2C AVERAGE MISS LATENCY: 139.808 cycles
LLC TOTAL     ACCESS:       4989  HIT:       2012  MISS:       2977
LLC LOAD      ACCESS:       1205  HIT:        266  MISS:        939
LLC RFO       ACCESS:        184  HIT:          2  MISS:        182
LLC PREFETCH  ACCESS:       3544  HIT:       1688  MISS:       1856
LLC WRITEBACK ACCESS:         56  HIT:         56  MISS:          0
LLC PREFETCH  REQUESTED:          0  ISSUED:          0  USEFUL:        264  USELESS:          0
LLC AVERAGE MISS LATENCY: 139.892 cycles
Major fault: 0 Minor fault: 683
CPU 0 L1D next line prefetcher final stats

DRAM Statistics
 CHANNEL 0
 RQ ROW_BUFFER_HIT:       1151  ROW_BUFFER_MISS:       1826
 DBUS_CONGESTED:        962
 WQ ROW_BUFFER_HIT:          0  ROW_BUFFER_MISS:          0  FULL:          0

 AVG_CONGESTED_CYCLE: 3

CPU 0 Branch Prediction Accuracy: 99.3421% MPKI: 0.91044 Average ROB Occupancy at Mispredict: 180.592

Branch types
NOT_BRANCH: 43080723 86.1614%
BRANCH_DIRECT_JUMP: 1038017 2.07603%
BRANCH_INDIRECT: 413789 0.827578%
BRANCH_CONDITIONAL: 4872387 9.74477%
BRANCH_DIRECT_CALL: 285993 0.571986%
BRANCH_INDIRECT_CALL: 11392 0.022784%
BRANCH_RETURN: 297386 0.594772%
BRANCH_OTHER: 0 0%

