Initialize SIGNATURE TABLE
ST_SET: 1
ST_WAY: 256
ST_TAG_BIT: 16
ST_TAG_MASK: ffff

Initialize PATTERN TABLE
PT_SET: 512
PT_WAY: 4
SIG_DELTA_BIT: 7
C_SIG_BIT: 4
C_DELTA_BIT: 4

Initialize PREFETCH FILTER
FILTER_SET: 1024

*** ChampSim Multicore Out-of-Order Simulator ***

Warmup Instructions: 50000000
Simulation Instructions: 50000000
Number of CPUs: 1
LLC sets: 2048
LLC ways: 16
Off-chip DRAM Size: 4096 MB Channels: 1 Width: 64-bit Data Rate: 3200 MT/s

CPU 0 runs /home/ykhodke/ChampSim/dpc3_traces/603.bwaves_s-3699B.champsimtrace.xz
L1I D-JOLT instruction prefetcher has been constructed!
CPU 0 L1D next line prefetcher
Heartbeat CPU 0 instructions: 10000000 cycles: 3420599 heartbeat IPC: 2.92346 cumulative IPC: 2.92346 (Simulation time: 0 hr 0 min 10 sec) 
Heartbeat CPU 0 instructions: 20000003 cycles: 6826757 heartbeat IPC: 2.93586 cumulative IPC: 2.92965 (Simulation time: 0 hr 0 min 21 sec) 
Heartbeat CPU 0 instructions: 30000002 cycles: 10233045 heartbeat IPC: 2.93575 cumulative IPC: 2.93168 (Simulation time: 0 hr 0 min 32 sec) 
Heartbeat CPU 0 instructions: 40000002 cycles: 13656378 heartbeat IPC: 2.92113 cumulative IPC: 2.92903 (Simulation time: 0 hr 0 min 42 sec) 
Heartbeat CPU 0 instructions: 50000003 cycles: 17076950 heartbeat IPC: 2.92349 cumulative IPC: 2.92792 (Simulation time: 0 hr 0 min 52 sec) 

Warmup complete CPU 0 instructions: 50000003 cycles: 17076950 (Simulation time: 0 hr 0 min 52 sec) 

Heartbeat CPU 0 instructions: 60000001 cycles: 23600984 heartbeat IPC: 1.53279 cumulative IPC: 1.53279 (Simulation time: 0 hr 1 min 0 sec) 
Heartbeat CPU 0 instructions: 70000001 cycles: 30123513 heartbeat IPC: 1.53315 cumulative IPC: 1.53297 (Simulation time: 0 hr 1 min 9 sec) 
Heartbeat CPU 0 instructions: 80000000 cycles: 36639978 heartbeat IPC: 1.53457 cumulative IPC: 1.5335 (Simulation time: 0 hr 1 min 17 sec) 
Heartbeat CPU 0 instructions: 90000003 cycles: 43157271 heartbeat IPC: 1.53438 cumulative IPC: 1.53372 (Simulation time: 0 hr 1 min 26 sec) 
Heartbeat CPU 0 instructions: 100000001 cycles: 49651731 heartbeat IPC: 1.53977 cumulative IPC: 1.53493 (Simulation time: 0 hr 1 min 34 sec) 
Finished CPU 0 instructions: 50000001 cycles: 32574782 cumulative IPC: 1.53493 (Simulation time: 0 hr 1 min 34 sec) 

ChampSim completed all CPUs

Region of Interest Statistics

CPU 0 cumulative IPC: 1.53493 instructions: 50000001 cycles: 32574782
L1D TOTAL     ACCESS:   16162758  HIT:   16160836  MISS:       1922
L1D LOAD      ACCESS:    7289134  HIT:    7289095  MISS:         39
L1D RFO       ACCESS:    1676869  HIT:    1675324  MISS:       1545
L1D PREFETCH  ACCESS:    7196755  HIT:    7196417  MISS:        338
L1D WRITEBACK ACCESS:          0  HIT:          0  MISS:          0
L1D PREFETCH  REQUESTED:    7289195  ISSUED:    7242775  USEFUL:        317  USELESS:         80
L1D AVERAGE MISS LATENCY: 172.265 cycles
L1I TOTAL     ACCESS:   10798356  HIT:   10798356  MISS:          0
L1I LOAD      ACCESS:   10676493  HIT:   10676493  MISS:          0
L1I RFO       ACCESS:          0  HIT:          0  MISS:          0
L1I PREFETCH  ACCESS:     121863  HIT:     121863  MISS:          0
L1I WRITEBACK ACCESS:          0  HIT:          0  MISS:          0
L1I PREFETCH  REQUESTED:     132784  ISSUED:     132784  USEFUL:          0  USELESS:          0
L1I AVERAGE MISS LATENCY: -nan cycles
L2C TOTAL     ACCESS:       3726  HIT:       1884  MISS:       1842
L2C LOAD      ACCESS:         39  HIT:         34  MISS:          5
L2C RFO       ACCESS:       1468  HIT:         13  MISS:       1455
L2C PREFETCH  ACCESS:        658  HIT:        276  MISS:        382
L2C WRITEBACK ACCESS:       1561  HIT:       1561  MISS:          0
L2C PREFETCH  REQUESTED:       2011  ISSUED:       2011  USEFUL:          2  USELESS:        474
L2C AVERAGE MISS LATENCY: 175.976 cycles
LLC TOTAL     ACCESS:       5100  HIT:       3254  MISS:       1846
LLC LOAD      ACCESS:          5  HIT:          0  MISS:          5
LLC RFO       ACCESS:       1452  HIT:         69  MISS:       1383
LLC PREFETCH  ACCESS:       2070  HIT:       1612  MISS:        458
LLC WRITEBACK ACCESS:       1573  HIT:       1573  MISS:          0
LLC PREFETCH  REQUESTED:          0  ISSUED:          0  USEFUL:         69  USELESS:        504
LLC AVERAGE MISS LATENCY: 186.291 cycles
Major fault: 0 Minor fault: 908
CPU 0 L1D next line prefetcher final stats

DRAM Statistics
 CHANNEL 0
 RQ ROW_BUFFER_HIT:        240  ROW_BUFFER_MISS:       1606
 DBUS_CONGESTED:       1301
 WQ ROW_BUFFER_HIT:        698  ROW_BUFFER_MISS:        837  FULL:          0

 AVG_CONGESTED_CYCLE: 6

CPU 0 Branch Prediction Accuracy: 99.9155% MPKI: 0.12258 Average ROB Occupancy at Mispredict: 89.4725

Branch types
NOT_BRANCH: 42745793 85.4916%
BRANCH_DIRECT_JUMP: 530397 1.06079%
BRANCH_INDIRECT: 43363 0.086726%
BRANCH_CONDITIONAL: 6567442 13.1349%
BRANCH_DIRECT_CALL: 56410 0.11282%
BRANCH_INDIRECT_CALL: 0 0%
BRANCH_RETURN: 56411 0.112822%
BRANCH_OTHER: 0 0%

