Initialize SIGNATURE TABLE
ST_SET: 1
ST_WAY: 256
ST_TAG_BIT: 16
ST_TAG_MASK: ffff

Initialize PATTERN TABLE
PT_SET: 512
PT_WAY: 4
SIG_DELTA_BIT: 7
C_SIG_BIT: 4
C_DELTA_BIT: 4

Initialize PREFETCH FILTER
FILTER_SET: 1024

*** ChampSim Multicore Out-of-Order Simulator ***

Warmup Instructions: 50000000
Simulation Instructions: 50000000
Number of CPUs: 1
LLC sets: 2048
LLC ways: 16
Off-chip DRAM Size: 4096 MB Channels: 1 Width: 64-bit Data Rate: 3200 MT/s

CPU 0 runs /home/ykhodke/ChampSim/dpc3_traces/605.mcf_s-665B.champsimtrace.xz
L1I D-JOLT instruction prefetcher has been constructed!
CPU 0 L1D next line prefetcher
Heartbeat CPU 0 instructions: 10000000 cycles: 4106239 heartbeat IPC: 2.43532 cumulative IPC: 2.43532 (Simulation time: 0 hr 0 min 15 sec) 
Heartbeat CPU 0 instructions: 20000000 cycles: 8221189 heartbeat IPC: 2.43016 cumulative IPC: 2.43274 (Simulation time: 0 hr 0 min 30 sec) 
Heartbeat CPU 0 instructions: 30000002 cycles: 12321286 heartbeat IPC: 2.43897 cumulative IPC: 2.43481 (Simulation time: 0 hr 0 min 45 sec) 
Heartbeat CPU 0 instructions: 40000000 cycles: 16424657 heartbeat IPC: 2.43702 cumulative IPC: 2.43536 (Simulation time: 0 hr 1 min 0 sec) 
Heartbeat CPU 0 instructions: 50000000 cycles: 20523421 heartbeat IPC: 2.43976 cumulative IPC: 2.43624 (Simulation time: 0 hr 1 min 15 sec) 

Warmup complete CPU 0 instructions: 50000004 cycles: 20523422 (Simulation time: 0 hr 1 min 15 sec) 

Heartbeat CPU 0 instructions: 60000003 cycles: 44567466 heartbeat IPC: 0.415904 cumulative IPC: 0.415903 (Simulation time: 0 hr 1 min 29 sec) 
Heartbeat CPU 0 instructions: 70000003 cycles: 68338704 heartbeat IPC: 0.420676 cumulative IPC: 0.418276 (Simulation time: 0 hr 1 min 43 sec) 
Heartbeat CPU 0 instructions: 80000001 cycles: 92376618 heartbeat IPC: 0.416009 cumulative IPC: 0.417518 (Simulation time: 0 hr 1 min 57 sec) 
Heartbeat CPU 0 instructions: 90000001 cycles: 116793721 heartbeat IPC: 0.409549 cumulative IPC: 0.415497 (Simulation time: 0 hr 2 min 11 sec) 
Heartbeat CPU 0 instructions: 100000000 cycles: 139520387 heartbeat IPC: 0.440012 cumulative IPC: 0.420179 (Simulation time: 0 hr 2 min 24 sec) 
Finished CPU 0 instructions: 50000000 cycles: 118996966 cumulative IPC: 0.420179 (Simulation time: 0 hr 2 min 24 sec) 

ChampSim completed all CPUs

Region of Interest Statistics

CPU 0 cumulative IPC: 0.420179 instructions: 50000000 cycles: 118996966
L1D TOTAL     ACCESS:   30411960  HIT:   27229253  MISS:    3182707
L1D LOAD      ACCESS:   12756117  HIT:   11151280  MISS:    1604837
L1D RFO       ACCESS:    5404401  HIT:    5206446  MISS:     197955
L1D PREFETCH  ACCESS:   12251442  HIT:   10871527  MISS:    1379915
L1D WRITEBACK ACCESS:          0  HIT:          0  MISS:          0
L1D PREFETCH  REQUESTED:   12901351  ISSUED:   12788770  USEFUL:     246412  USELESS:    1133514
L1D AVERAGE MISS LATENCY: 67.7926 cycles
L1I TOTAL     ACCESS:   12305875  HIT:   12305875  MISS:          0
L1I LOAD      ACCESS:    9392435  HIT:    9392435  MISS:          0
L1I RFO       ACCESS:          0  HIT:          0  MISS:          0
L1I PREFETCH  ACCESS:    2913440  HIT:    2913440  MISS:          0
L1I WRITEBACK ACCESS:          0  HIT:          0  MISS:          0
L1I PREFETCH  REQUESTED:    3222176  ISSUED:    3222176  USEFUL:          0  USELESS:          0
L1I AVERAGE MISS LATENCY: -nan cycles
L2C TOTAL     ACCESS:    3908197  HIT:    1799246  MISS:    2108951
L2C LOAD      ACCESS:    1410338  HIT:     535162  MISS:     875176
L2C RFO       ACCESS:     197884  HIT:      77253  MISS:     120631
L2C PREFETCH  ACCESS:    2014419  HIT:     901580  MISS:    1112839
L2C WRITEBACK ACCESS:     285556  HIT:     285251  MISS:        305
L2C PREFETCH  REQUESTED:    2341958  ISSUED:    2341958  USEFUL:      90979  USELESS:    1021448
L2C AVERAGE MISS LATENCY: 91.9621 cycles
LLC TOTAL     ACCESS:    2937641  HIT:    1970979  MISS:     966662
LLC LOAD      ACCESS:     875160  HIT:     586182  MISS:     288978
LLC RFO       ACCESS:     120628  HIT:     117218  MISS:       3410
LLC PREFETCH  ACCESS:    1765079  HIT:    1092031  MISS:     673048
LLC WRITEBACK ACCESS:     176774  HIT:     175548  MISS:       1226
LLC PREFETCH  REQUESTED:          0  ISSUED:          0  USEFUL:     102704  USELESS:     570012
LLC AVERAGE MISS LATENCY: 188.652 cycles
Major fault: 0 Minor fault: 15068
CPU 0 L1D next line prefetcher final stats

DRAM Statistics
 CHANNEL 0
 RQ ROW_BUFFER_HIT:     136030  ROW_BUFFER_MISS:     829371
 DBUS_CONGESTED:     328899
 WQ ROW_BUFFER_HIT:       4894  ROW_BUFFER_MISS:      10503  FULL:          0

 AVG_CONGESTED_CYCLE: 5

CPU 0 Branch Prediction Accuracy: 93.133% MPKI: 17.08 Average ROB Occupancy at Mispredict: 26.6735

Branch types
NOT_BRANCH: 37563287 75.1266%
BRANCH_DIRECT_JUMP: 1317761 2.63552%
BRANCH_INDIRECT: 0 0%
BRANCH_CONDITIONAL: 8419917 16.8398%
BRANCH_DIRECT_CALL: 1274782 2.54956%
BRANCH_INDIRECT_CALL: 74550 0.1491%
BRANCH_RETURN: 1349334 2.69867%
BRANCH_OTHER: 0 0%

