Initialize SIGNATURE TABLE
ST_SET: 1
ST_WAY: 256
ST_TAG_BIT: 16
ST_TAG_MASK: ffff

Initialize PATTERN TABLE
PT_SET: 512
PT_WAY: 4
SIG_DELTA_BIT: 7
C_SIG_BIT: 4
C_DELTA_BIT: 4

Initialize PREFETCH FILTER
FILTER_SET: 1024

*** ChampSim Multicore Out-of-Order Simulator ***

Warmup Instructions: 50000000
Simulation Instructions: 50000000
Number of CPUs: 1
LLC sets: 2048
LLC ways: 16
Off-chip DRAM Size: 4096 MB Channels: 1 Width: 64-bit Data Rate: 3200 MT/s

CPU 0 runs /home/ykhodke/ChampSim/dpc3_traces/607.cactuBSSN_s-2421B.champsimtrace.xz
L1I D-JOLT instruction prefetcher has been constructed!
CPU 0 L1D next line prefetcher
Heartbeat CPU 0 instructions: 10000002 cycles: 4829805 heartbeat IPC: 2.07048 cumulative IPC: 2.07048 (Simulation time: 0 hr 0 min 17 sec) 
Heartbeat CPU 0 instructions: 20000001 cycles: 9657035 heartbeat IPC: 2.07158 cumulative IPC: 2.07103 (Simulation time: 0 hr 0 min 34 sec) 
Heartbeat CPU 0 instructions: 30000002 cycles: 14486277 heartbeat IPC: 2.07072 cumulative IPC: 2.07093 (Simulation time: 0 hr 0 min 52 sec) 
Heartbeat CPU 0 instructions: 40000003 cycles: 19315062 heartbeat IPC: 2.07091 cumulative IPC: 2.07092 (Simulation time: 0 hr 1 min 9 sec) 
Heartbeat CPU 0 instructions: 50000000 cycles: 24144823 heartbeat IPC: 2.0705 cumulative IPC: 2.07084 (Simulation time: 0 hr 1 min 26 sec) 

Warmup complete CPU 0 instructions: 50000004 cycles: 24144824 (Simulation time: 0 hr 1 min 26 sec) 

Heartbeat CPU 0 instructions: 60000000 cycles: 29672841 heartbeat IPC: 1.80897 cumulative IPC: 1.80897 (Simulation time: 0 hr 1 min 42 sec) 
Heartbeat CPU 0 instructions: 70000003 cycles: 34714805 heartbeat IPC: 1.98335 cumulative IPC: 1.89215 (Simulation time: 0 hr 1 min 58 sec) 
Heartbeat CPU 0 instructions: 80000001 cycles: 39750157 heartbeat IPC: 1.98596 cumulative IPC: 1.92242 (Simulation time: 0 hr 2 min 14 sec) 
Heartbeat CPU 0 instructions: 90000000 cycles: 44802314 heartbeat IPC: 1.97935 cumulative IPC: 1.93634 (Simulation time: 0 hr 2 min 30 sec) 
Heartbeat CPU 0 instructions: 100000002 cycles: 49839158 heartbeat IPC: 1.98537 cumulative IPC: 1.94595 (Simulation time: 0 hr 2 min 46 sec) 
Finished CPU 0 instructions: 50000002 cycles: 25694335 cumulative IPC: 1.94595 (Simulation time: 0 hr 2 min 46 sec) 

ChampSim completed all CPUs

Region of Interest Statistics

CPU 0 cumulative IPC: 1.94595 instructions: 50000002 cycles: 25694335
L1D TOTAL     ACCESS:   21082200  HIT:   11673083  MISS:    9409117
L1D LOAD      ACCESS:    8747854  HIT:    3411239  MISS:    5336615
L1D RFO       ACCESS:    5575963  HIT:    5164063  MISS:     411900
L1D PREFETCH  ACCESS:    6758383  HIT:    3097781  MISS:    3660602
L1D WRITEBACK ACCESS:          0  HIT:          0  MISS:          0
L1D PREFETCH  REQUESTED:    8861897  ISSUED:    7044744  USEFUL:      26567  USELESS:    3634079
L1D AVERAGE MISS LATENCY: 22.0978 cycles
L1I TOTAL     ACCESS:    7281892  HIT:    7218223  MISS:      63669
L1I LOAD      ACCESS:    7102846  HIT:    7069666  MISS:      33180
L1I RFO       ACCESS:          0  HIT:          0  MISS:          0
L1I PREFETCH  ACCESS:     179046  HIT:     148557  MISS:      30489
L1I WRITEBACK ACCESS:          0  HIT:          0  MISS:          0
L1I PREFETCH  REQUESTED:     232740  ISSUED:     224922  USEFUL:      26709  USELESS:       3787
L1I AVERAGE MISS LATENCY: 9.70973 cycles
L2C TOTAL     ACCESS:   12897248  HIT:   12418692  MISS:     478556
L2C LOAD      ACCESS:    5239783  HIT:    5227993  MISS:      11790
L2C RFO       ACCESS:     409630  HIT:     408362  MISS:       1268
L2C PREFETCH  ACCESS:    6771232  HIT:    6305736  MISS:     465496
L2C WRITEBACK ACCESS:     476603  HIT:     476601  MISS:          2
L2C PREFETCH  REQUESTED:    9836688  ISSUED:    8046359  USEFUL:     460750  USELESS:       4768
L2C AVERAGE MISS LATENCY: 83.8576 cycles
LLC TOTAL     ACCESS:    1506691  HIT:    1127755  MISS:     378936
LLC LOAD      ACCESS:      11789  HIT:       4315  MISS:       7474
LLC RFO       ACCESS:       1245  HIT:        143  MISS:       1102
LLC PREFETCH  ACCESS:    1446303  HIT:    1075992  MISS:     370311
LLC WRITEBACK ACCESS:      47354  HIT:      47305  MISS:         49
LLC PREFETCH  REQUESTED:          0  ISSUED:          0  USEFUL:       2447  USELESS:     361171
LLC AVERAGE MISS LATENCY: 355.443 cycles
Major fault: 0 Minor fault: 8502
CPU 0 L1D next line prefetcher final stats

DRAM Statistics
 CHANNEL 0
 RQ ROW_BUFFER_HIT:     202371  ROW_BUFFER_MISS:     176516
 DBUS_CONGESTED:      81221
 WQ ROW_BUFFER_HIT:      21783  ROW_BUFFER_MISS:      27784  FULL:          0

 AVG_CONGESTED_CYCLE: 5

CPU 0 Branch Prediction Accuracy: 98.9708% MPKI: 0.02072 Average ROB Occupancy at Mispredict: 73.8514

Branch types
NOT_BRANCH: 49899106 99.7982%
BRANCH_DIRECT_JUMP: 16920 0.03384%
BRANCH_INDIRECT: 14629 0.029258%
BRANCH_CONDITIONAL: 57073 0.114146%
BRANCH_DIRECT_CALL: 6013 0.012026%
BRANCH_INDIRECT_CALL: 3 6e-06%
BRANCH_RETURN: 6018 0.012036%
BRANCH_OTHER: 0 0%

