Initialize SIGNATURE TABLE
ST_SET: 1
ST_WAY: 256
ST_TAG_BIT: 16
ST_TAG_MASK: ffff

Initialize PATTERN TABLE
PT_SET: 512
PT_WAY: 4
SIG_DELTA_BIT: 7
C_SIG_BIT: 4
C_DELTA_BIT: 4

Initialize PREFETCH FILTER
FILTER_SET: 1024

*** ChampSim Multicore Out-of-Order Simulator ***

Warmup Instructions: 50000000
Simulation Instructions: 50000000
Number of CPUs: 1
LLC sets: 2048
LLC ways: 16
Off-chip DRAM Size: 4096 MB Channels: 1 Width: 64-bit Data Rate: 3200 MT/s

CPU 0 runs /home/ykhodke/ChampSim/dpc3_traces/619.lbm_s-4268B.champsimtrace.xz
L1I D-JOLT instruction prefetcher has been constructed!
CPU 0 L1D next line prefetcher
Heartbeat CPU 0 instructions: 10000002 cycles: 3518061 heartbeat IPC: 2.84248 cumulative IPC: 2.84248 (Simulation time: 0 hr 0 min 15 sec) 
Heartbeat CPU 0 instructions: 20000003 cycles: 7033921 heartbeat IPC: 2.84425 cumulative IPC: 2.84336 (Simulation time: 0 hr 0 min 29 sec) 
Heartbeat CPU 0 instructions: 30000001 cycles: 10543360 heartbeat IPC: 2.84946 cumulative IPC: 2.84539 (Simulation time: 0 hr 0 min 43 sec) 
Heartbeat CPU 0 instructions: 40000000 cycles: 14065997 heartbeat IPC: 2.83878 cumulative IPC: 2.84374 (Simulation time: 0 hr 0 min 57 sec) 
Heartbeat CPU 0 instructions: 50000000 cycles: 17589422 heartbeat IPC: 2.83815 cumulative IPC: 2.84262 (Simulation time: 0 hr 1 min 12 sec) 

Warmup complete CPU 0 instructions: 50000004 cycles: 17589423 (Simulation time: 0 hr 1 min 12 sec) 

Heartbeat CPU 0 instructions: 60000002 cycles: 40024471 heartbeat IPC: 0.445731 cumulative IPC: 0.445731 (Simulation time: 0 hr 1 min 37 sec) 
Heartbeat CPU 0 instructions: 70000002 cycles: 61862223 heartbeat IPC: 0.457923 cumulative IPC: 0.451745 (Simulation time: 0 hr 2 min 2 sec) 
Heartbeat CPU 0 instructions: 80000000 cycles: 83499869 heartbeat IPC: 0.462157 cumulative IPC: 0.455163 (Simulation time: 0 hr 2 min 27 sec) 
Heartbeat CPU 0 instructions: 90000001 cycles: 105349237 heartbeat IPC: 0.457679 cumulative IPC: 0.455789 (Simulation time: 0 hr 2 min 52 sec) 
Heartbeat CPU 0 instructions: 100000001 cycles: 126705438 heartbeat IPC: 0.468248 cumulative IPC: 0.458228 (Simulation time: 0 hr 3 min 17 sec) 
Finished CPU 0 instructions: 50000001 cycles: 109116016 cumulative IPC: 0.458228 (Simulation time: 0 hr 3 min 17 sec) 

ChampSim completed all CPUs

Region of Interest Statistics

CPU 0 cumulative IPC: 0.458228 instructions: 50000001 cycles: 109116016
L1D TOTAL     ACCESS:   16121969  HIT:   12202058  MISS:    3919911
L1D LOAD      ACCESS:    3867985  HIT:    3366936  MISS:     501049
L1D RFO       ACCESS:    9019305  HIT:    5693553  MISS:    3325752
L1D PREFETCH  ACCESS:    3234679  HIT:    3141569  MISS:      93110
L1D WRITEBACK ACCESS:          0  HIT:          0  MISS:          0
L1D PREFETCH  REQUESTED:    4000686  ISSUED:    3968765  USEFUL:      92942  USELESS:        168
L1D AVERAGE MISS LATENCY: 371.284 cycles
L1I TOTAL     ACCESS:    7797610  HIT:    7797610  MISS:          0
L1I LOAD      ACCESS:    7797610  HIT:    7797610  MISS:          0
L1I RFO       ACCESS:          0  HIT:          0  MISS:          0
L1I PREFETCH  ACCESS:          0  HIT:          0  MISS:          0
L1I WRITEBACK ACCESS:          0  HIT:          0  MISS:          0
L1I PREFETCH  REQUESTED:          0  ISSUED:          0  USEFUL:          0  USELESS:          0
L1I AVERAGE MISS LATENCY: -nan cycles
L2C TOTAL     ACCESS:    7298982  HIT:    4897127  MISS:    2401855
L2C LOAD      ACCESS:     425216  HIT:      30842  MISS:     394374
L2C RFO       ACCESS:    3325744  HIT:    1518061  MISS:    1807683
L2C PREFETCH  ACCESS:     222266  HIT:      22597  MISS:     199669
L2C WRITEBACK ACCESS:    3325756  HIT:    3325627  MISS:        129
L2C PREFETCH  REQUESTED:    1594503  ISSUED:    1594503  USEFUL:      30811  USELESS:     168805
L2C AVERAGE MISS LATENCY: 602.196 cycles
LLC TOTAL     ACCESS:    4521231  HIT:    2145499  MISS:    2375732
LLC LOAD      ACCESS:     368354  HIT:     166504  MISS:     201850
LLC RFO       ACCESS:    1807683  HIT:      26122  MISS:    1781561
LLC PREFETCH  ACCESS:     535236  HIT:     143024  MISS:     392212
LLC WRITEBACK ACCESS:    1809958  HIT:    1809849  MISS:        109
LLC PREFETCH  REQUESTED:          0  ISSUED:          0  USEFUL:     166486  USELESS:     225772
LLC AVERAGE MISS LATENCY: 635.549 cycles
Major fault: 0 Minor fault: 40055
CPU 0 L1D next line prefetcher final stats

DRAM Statistics
 CHANNEL 0
 RQ ROW_BUFFER_HIT:     150346  ROW_BUFFER_MISS:    2225277
 DBUS_CONGESTED:    2722783
 WQ ROW_BUFFER_HIT:     344267  ROW_BUFFER_MISS:    1440865  FULL:          0

 AVG_CONGESTED_CYCLE: 6

CPU 0 Branch Prediction Accuracy: 97.0984% MPKI: 0.5204 Average ROB Occupancy at Mispredict: 284.05

Branch types
NOT_BRANCH: 49103139 98.2063%
BRANCH_DIRECT_JUMP: 145480 0.29096%
BRANCH_INDIRECT: 0 0%
BRANCH_CONDITIONAL: 751271 1.50254%
BRANCH_DIRECT_CALL: 0 0%
BRANCH_INDIRECT_CALL: 0 0%
BRANCH_RETURN: 0 0%
BRANCH_OTHER: 0 0%

