Initialize SIGNATURE TABLE
ST_SET: 1
ST_WAY: 256
ST_TAG_BIT: 16
ST_TAG_MASK: ffff

Initialize PATTERN TABLE
PT_SET: 512
PT_WAY: 4
SIG_DELTA_BIT: 7
C_SIG_BIT: 4
C_DELTA_BIT: 4

Initialize PREFETCH FILTER
FILTER_SET: 1024

*** ChampSim Multicore Out-of-Order Simulator ***

Warmup Instructions: 50000000
Simulation Instructions: 50000000
Number of CPUs: 1
LLC sets: 2048
LLC ways: 16
Off-chip DRAM Size: 4096 MB Channels: 1 Width: 64-bit Data Rate: 3200 MT/s

CPU 0 runs /home/ykhodke/ChampSim/dpc3_traces/625.x264_s-18B.champsimtrace.xz
L1I D-JOLT instruction prefetcher has been constructed!
CPU 0 L1D next line prefetcher
Heartbeat CPU 0 instructions: 10000001 cycles: 3382996 heartbeat IPC: 2.95596 cumulative IPC: 2.95596 (Simulation time: 0 hr 0 min 12 sec) 
Heartbeat CPU 0 instructions: 20000000 cycles: 6779358 heartbeat IPC: 2.94433 cumulative IPC: 2.95013 (Simulation time: 0 hr 0 min 24 sec) 
Heartbeat CPU 0 instructions: 30000000 cycles: 10161197 heartbeat IPC: 2.95697 cumulative IPC: 2.95241 (Simulation time: 0 hr 0 min 36 sec) 
Heartbeat CPU 0 instructions: 40000002 cycles: 13534730 heartbeat IPC: 2.96425 cumulative IPC: 2.95536 (Simulation time: 0 hr 0 min 47 sec) 
Heartbeat CPU 0 instructions: 50000003 cycles: 16903065 heartbeat IPC: 2.96883 cumulative IPC: 2.95804 (Simulation time: 0 hr 0 min 59 sec) 

Warmup complete CPU 0 instructions: 50000003 cycles: 16903065 (Simulation time: 0 hr 0 min 59 sec) 

Heartbeat CPU 0 instructions: 60000001 cycles: 22511612 heartbeat IPC: 1.78299 cumulative IPC: 1.78299 (Simulation time: 0 hr 1 min 8 sec) 
Heartbeat CPU 0 instructions: 70000000 cycles: 28134422 heartbeat IPC: 1.77847 cumulative IPC: 1.78073 (Simulation time: 0 hr 1 min 17 sec) 
Heartbeat CPU 0 instructions: 80000000 cycles: 33759898 heartbeat IPC: 1.77763 cumulative IPC: 1.77969 (Simulation time: 0 hr 1 min 26 sec) 
Heartbeat CPU 0 instructions: 90000002 cycles: 39397405 heartbeat IPC: 1.77383 cumulative IPC: 1.77823 (Simulation time: 0 hr 1 min 35 sec) 
Heartbeat CPU 0 instructions: 100000001 cycles: 45030842 heartbeat IPC: 1.77512 cumulative IPC: 1.7776 (Simulation time: 0 hr 1 min 44 sec) 
Finished CPU 0 instructions: 50000002 cycles: 28127778 cumulative IPC: 1.7776 (Simulation time: 0 hr 1 min 44 sec) 

ChampSim completed all CPUs

Region of Interest Statistics

CPU 0 cumulative IPC: 1.7776 instructions: 50000002 cycles: 28127778
L1D TOTAL     ACCESS:   10998757  HIT:   10980939  MISS:      17818
L1D LOAD      ACCESS:    3913731  HIT:    3898330  MISS:      15401
L1D RFO       ACCESS:    3265011  HIT:    3264524  MISS:        487
L1D PREFETCH  ACCESS:    3820015  HIT:    3818085  MISS:       1930
L1D WRITEBACK ACCESS:          0  HIT:          0  MISS:          0
L1D PREFETCH  REQUESTED:    3918146  ISSUED:    3827236  USEFUL:        318  USELESS:       1618
L1D AVERAGE MISS LATENCY: 83.1493 cycles
L1I TOTAL     ACCESS:    8481660  HIT:    8481660  MISS:          0
L1I LOAD      ACCESS:    8054597  HIT:    8054597  MISS:          0
L1I RFO       ACCESS:          0  HIT:          0  MISS:          0
L1I PREFETCH  ACCESS:     427063  HIT:     427063  MISS:          0
L1I WRITEBACK ACCESS:          0  HIT:          0  MISS:          0
L1I PREFETCH  REQUESTED:     433778  ISSUED:     433778  USEFUL:          0  USELESS:          0
L1I AVERAGE MISS LATENCY: -nan cycles
L2C TOTAL     ACCESS:      28941  HIT:      13809  MISS:      15132
L2C LOAD      ACCESS:      15381  HIT:       3488  MISS:      11893
L2C RFO       ACCESS:        486  HIT:         28  MISS:        458
L2C PREFETCH  ACCESS:      12590  HIT:       9811  MISS:       2779
L2C WRITEBACK ACCESS:        484  HIT:        482  MISS:          2
L2C PREFETCH  REQUESTED:      43842  ISSUED:      43766  USEFUL:       1857  USELESS:        957
L2C AVERAGE MISS LATENCY: 85.493 cycles
LLC TOTAL     ACCESS:      30905  HIT:      16211  MISS:      14694
LLC LOAD      ACCESS:      10276  HIT:       5731  MISS:       4545
LLC RFO       ACCESS:        458  HIT:         42  MISS:        416
LLC PREFETCH  ACCESS:      19692  HIT:       9959  MISS:       9733
LLC WRITEBACK ACCESS:        479  HIT:        479  MISS:          0
LLC PREFETCH  REQUESTED:          0  ISSUED:          0  USEFUL:       5357  USELESS:        689
LLC AVERAGE MISS LATENCY: 129.059 cycles
Major fault: 0 Minor fault: 670
CPU 0 L1D next line prefetcher final stats

DRAM Statistics
 CHANNEL 0
 RQ ROW_BUFFER_HIT:       7857  ROW_BUFFER_MISS:       6837
 DBUS_CONGESTED:       5400
 WQ ROW_BUFFER_HIT:         11  ROW_BUFFER_MISS:         52  FULL:          0

 AVG_CONGESTED_CYCLE: 6

CPU 0 Branch Prediction Accuracy: 99.695% MPKI: 0.12886 Average ROB Occupancy at Mispredict: 60.6497

Branch types
NOT_BRANCH: 47887571 95.7751%
BRANCH_DIRECT_JUMP: 36263 0.072526%
BRANCH_INDIRECT: 3236 0.006472%
BRANCH_CONDITIONAL: 1791513 3.58303%
BRANCH_DIRECT_CALL: 71355 0.14271%
BRANCH_INDIRECT_CALL: 69258 0.138516%
BRANCH_RETURN: 140613 0.281226%
BRANCH_OTHER: 0 0%

