Initialize SIGNATURE TABLE
ST_SET: 1
ST_WAY: 256
ST_TAG_BIT: 16
ST_TAG_MASK: ffff

Initialize PATTERN TABLE
PT_SET: 512
PT_WAY: 4
SIG_DELTA_BIT: 7
C_SIG_BIT: 4
C_DELTA_BIT: 4

Initialize PREFETCH FILTER
FILTER_SET: 1024

*** ChampSim Multicore Out-of-Order Simulator ***

Warmup Instructions: 50000000
Simulation Instructions: 50000000
Number of CPUs: 1
LLC sets: 2048
LLC ways: 16
Off-chip DRAM Size: 4096 MB Channels: 1 Width: 64-bit Data Rate: 3200 MT/s

CPU 0 runs /home/ykhodke/ChampSim/dpc3_traces/641.leela_s-800B.champsimtrace.xz
L1I D-JOLT instruction prefetcher has been constructed!
CPU 0 L1D next line prefetcher
Heartbeat CPU 0 instructions: 10000003 cycles: 4646086 heartbeat IPC: 2.15235 cumulative IPC: 2.15235 (Simulation time: 0 hr 0 min 14 sec) 
Heartbeat CPU 0 instructions: 20000003 cycles: 9289226 heartbeat IPC: 2.15371 cumulative IPC: 2.15303 (Simulation time: 0 hr 0 min 28 sec) 
Heartbeat CPU 0 instructions: 30000001 cycles: 13951215 heartbeat IPC: 2.14501 cumulative IPC: 2.15035 (Simulation time: 0 hr 0 min 42 sec) 
Heartbeat CPU 0 instructions: 40000002 cycles: 18599671 heartbeat IPC: 2.15125 cumulative IPC: 2.15058 (Simulation time: 0 hr 0 min 56 sec) 
Heartbeat CPU 0 instructions: 50000001 cycles: 23243207 heartbeat IPC: 2.15353 cumulative IPC: 2.15117 (Simulation time: 0 hr 1 min 9 sec) 

Warmup complete CPU 0 instructions: 50000001 cycles: 23243207 (Simulation time: 0 hr 1 min 9 sec) 

Heartbeat CPU 0 instructions: 60000000 cycles: 34793219 heartbeat IPC: 0.8658 cumulative IPC: 0.8658 (Simulation time: 0 hr 1 min 21 sec) 
Heartbeat CPU 0 instructions: 70000001 cycles: 46317209 heartbeat IPC: 0.867755 cumulative IPC: 0.866776 (Simulation time: 0 hr 1 min 32 sec) 
Heartbeat CPU 0 instructions: 80000001 cycles: 57832268 heartbeat IPC: 0.868428 cumulative IPC: 0.867326 (Simulation time: 0 hr 1 min 43 sec) 
Heartbeat CPU 0 instructions: 90000003 cycles: 69297167 heartbeat IPC: 0.872228 cumulative IPC: 0.868546 (Simulation time: 0 hr 1 min 54 sec) 
Heartbeat CPU 0 instructions: 100000002 cycles: 80769376 heartbeat IPC: 0.871672 cumulative IPC: 0.86917 (Simulation time: 0 hr 2 min 5 sec) 
Finished CPU 0 instructions: 50000001 cycles: 57526169 cumulative IPC: 0.86917 (Simulation time: 0 hr 2 min 5 sec) 

ChampSim completed all CPUs

Region of Interest Statistics

CPU 0 cumulative IPC: 0.86917 instructions: 50000001 cycles: 57526169
L1D TOTAL     ACCESS:   25020510  HIT:   24868208  MISS:     152302
L1D LOAD      ACCESS:    9726206  HIT:    9636903  MISS:      89303
L1D RFO       ACCESS:    5717132  HIT:    5708026  MISS:       9106
L1D PREFETCH  ACCESS:    9577172  HIT:    9523279  MISS:      53893
L1D WRITEBACK ACCESS:          0  HIT:          0  MISS:          0
L1D PREFETCH  REQUESTED:    9729924  ISSUED:    9603456  USEFUL:      17620  USELESS:      36222
L1D AVERAGE MISS LATENCY: 15.7635 cycles
L1I TOTAL     ACCESS:   10414569  HIT:   10411735  MISS:       2834
L1I LOAD      ACCESS:    8977888  HIT:    8977850  MISS:         38
L1I RFO       ACCESS:          0  HIT:          0  MISS:          0
L1I PREFETCH  ACCESS:    1436681  HIT:    1433885  MISS:       2796
L1I WRITEBACK ACCESS:          0  HIT:          0  MISS:          0
L1I PREFETCH  REQUESTED:    1492374  ISSUED:    1492374  USEFUL:       2751  USELESS:         47
L1I AVERAGE MISS LATENCY: 15.7357 cycles
L2C TOTAL     ACCESS:     287530  HIT:     285810  MISS:       1720
L2C LOAD      ACCESS:      88983  HIT:      88242  MISS:        741
L2C RFO       ACCESS:       9004  HIT:       8963  MISS:         41
L2C PREFETCH  ACCESS:     169725  HIT:     168787  MISS:        938
L2C WRITEBACK ACCESS:      19818  HIT:      19818  MISS:          0
L2C PREFETCH  REQUESTED:     178718  ISSUED:     178616  USEFUL:        491  USELESS:        375
L2C AVERAGE MISS LATENCY: 78.9721 cycles
LLC TOTAL     ACCESS:      31121  HIT:      29793  MISS:       1328
LLC LOAD      ACCESS:        719  HIT:        490  MISS:        229
LLC RFO       ACCESS:         41  HIT:          4  MISS:         37
LLC PREFETCH  ACCESS:      30235  HIT:      29173  MISS:       1062
LLC WRITEBACK ACCESS:        126  HIT:        126  MISS:          0
LLC PREFETCH  REQUESTED:          0  ISSUED:          0  USEFUL:        134  USELESS:          0
LLC AVERAGE MISS LATENCY: 154.367 cycles
Major fault: 0 Minor fault: 491
CPU 0 L1D next line prefetcher final stats

DRAM Statistics
 CHANNEL 0
 RQ ROW_BUFFER_HIT:        273  ROW_BUFFER_MISS:       1055
 DBUS_CONGESTED:        381
 WQ ROW_BUFFER_HIT:          0  ROW_BUFFER_MISS:          0  FULL:          0

 AVG_CONGESTED_CYCLE: 4

CPU 0 Branch Prediction Accuracy: 93.0243% MPKI: 11.3959 Average ROB Occupancy at Mispredict: 42.4556

Branch types
NOT_BRANCH: 41831381 83.6628%
BRANCH_DIRECT_JUMP: 271721 0.543442%
BRANCH_INDIRECT: 310 0.00062%
BRANCH_CONDITIONAL: 4950159 9.90032%
BRANCH_DIRECT_CALL: 1473055 2.94611%
BRANCH_INDIRECT_CALL: 0 0%
BRANCH_RETURN: 1473053 2.94611%
BRANCH_OTHER: 0 0%

