Initialize SIGNATURE TABLE
ST_SET: 1
ST_WAY: 256
ST_TAG_BIT: 16
ST_TAG_MASK: ffff

Initialize PATTERN TABLE
PT_SET: 512
PT_WAY: 4
SIG_DELTA_BIT: 7
C_SIG_BIT: 4
C_DELTA_BIT: 4

Initialize PREFETCH FILTER
FILTER_SET: 1024

*** ChampSim Multicore Out-of-Order Simulator ***

Warmup Instructions: 50000000
Simulation Instructions: 50000000
Number of CPUs: 1
LLC sets: 2048
LLC ways: 16
Off-chip DRAM Size: 4096 MB Channels: 1 Width: 64-bit Data Rate: 3200 MT/s

CPU 0 runs /home/ykhodke/ChampSim/dpc3_traces/644.nab_s-5853B.champsimtrace.xz
L1I D-JOLT instruction prefetcher has been constructed!
CPU 0 L1D next line prefetcher
Heartbeat CPU 0 instructions: 10000000 cycles: 4234318 heartbeat IPC: 2.36166 cumulative IPC: 2.36166 (Simulation time: 0 hr 0 min 13 sec) 
Heartbeat CPU 0 instructions: 20000001 cycles: 8466893 heartbeat IPC: 2.36263 cumulative IPC: 2.36214 (Simulation time: 0 hr 0 min 27 sec) 
Heartbeat CPU 0 instructions: 30000000 cycles: 12701834 heartbeat IPC: 2.36131 cumulative IPC: 2.36186 (Simulation time: 0 hr 0 min 41 sec) 
Heartbeat CPU 0 instructions: 40000002 cycles: 16936785 heartbeat IPC: 2.3613 cumulative IPC: 2.36172 (Simulation time: 0 hr 0 min 55 sec) 
Heartbeat CPU 0 instructions: 50000001 cycles: 21169821 heartbeat IPC: 2.36237 cumulative IPC: 2.36185 (Simulation time: 0 hr 1 min 8 sec) 

Warmup complete CPU 0 instructions: 50000001 cycles: 21169821 (Simulation time: 0 hr 1 min 8 sec) 

Heartbeat CPU 0 instructions: 60000000 cycles: 28367322 heartbeat IPC: 1.38937 cumulative IPC: 1.38937 (Simulation time: 0 hr 1 min 23 sec) 
Heartbeat CPU 0 instructions: 70000000 cycles: 35554142 heartbeat IPC: 1.39144 cumulative IPC: 1.3904 (Simulation time: 0 hr 1 min 39 sec) 
Heartbeat CPU 0 instructions: 80000002 cycles: 42745635 heartbeat IPC: 1.39053 cumulative IPC: 1.39045 (Simulation time: 0 hr 1 min 54 sec) 
Heartbeat CPU 0 instructions: 90000000 cycles: 49936612 heartbeat IPC: 1.39063 cumulative IPC: 1.39049 (Simulation time: 0 hr 2 min 9 sec) 
Heartbeat CPU 0 instructions: 100000001 cycles: 57133353 heartbeat IPC: 1.38952 cumulative IPC: 1.3903 (Simulation time: 0 hr 2 min 25 sec) 
Finished CPU 0 instructions: 50000000 cycles: 35963532 cumulative IPC: 1.3903 (Simulation time: 0 hr 2 min 25 sec) 

ChampSim completed all CPUs

Region of Interest Statistics

CPU 0 cumulative IPC: 1.3903 instructions: 50000000 cycles: 35963532
L1D TOTAL     ACCESS:   25032365  HIT:   24822107  MISS:     210258
L1D LOAD      ACCESS:    9967823  HIT:    9942323  MISS:      25500
L1D RFO       ACCESS:    5530157  HIT:    5529688  MISS:        469
L1D PREFETCH  ACCESS:    9534385  HIT:    9350096  MISS:     184289
L1D WRITEBACK ACCESS:          0  HIT:          0  MISS:          0
L1D PREFETCH  REQUESTED:    9969743  ISSUED:    9560730  USEFUL:     166614  USELESS:      17685
L1D AVERAGE MISS LATENCY: 16.6962 cycles
L1I TOTAL     ACCESS:   15643461  HIT:   15643461  MISS:          0
L1I LOAD      ACCESS:    9446622  HIT:    9446622  MISS:          0
L1I RFO       ACCESS:          0  HIT:          0  MISS:          0
L1I PREFETCH  ACCESS:    6196839  HIT:    6196839  MISS:          0
L1I WRITEBACK ACCESS:          0  HIT:          0  MISS:          0
L1I PREFETCH  REQUESTED:    6196859  ISSUED:    6196859  USEFUL:          0  USELESS:          0
L1I AVERAGE MISS LATENCY: -nan cycles
L2C TOTAL     ACCESS:     743177  HIT:     732948  MISS:      10229
L2C LOAD      ACCESS:      25453  HIT:      24673  MISS:        780
L2C RFO       ACCESS:        467  HIT:        449  MISS:         18
L2C PREFETCH  ACCESS:     649539  HIT:     640108  MISS:       9431
L2C WRITEBACK ACCESS:      67718  HIT:      67718  MISS:          0
L2C PREFETCH  REQUESTED:     588114  ISSUED:     586403  USEFUL:        731  USELESS:       8844
L2C AVERAGE MISS LATENCY: 42.1288 cycles
LLC TOTAL     ACCESS:      83394  HIT:      71994  MISS:      11400
LLC LOAD      ACCESS:        780  HIT:        297  MISS:        483
LLC RFO       ACCESS:         18  HIT:         18  MISS:          0
LLC PREFETCH  ACCESS:      82340  HIT:      71423  MISS:      10917
LLC WRITEBACK ACCESS:        256  HIT:        256  MISS:          0
LLC PREFETCH  REQUESTED:          0  ISSUED:          0  USEFUL:        180  USELESS:        199
LLC AVERAGE MISS LATENCY: 90.0805 cycles
Major fault: 0 Minor fault: 936
CPU 0 L1D next line prefetcher final stats

DRAM Statistics
 CHANNEL 0
 RQ ROW_BUFFER_HIT:      10278  ROW_BUFFER_MISS:       1122
 DBUS_CONGESTED:       6055
 WQ ROW_BUFFER_HIT:          0  ROW_BUFFER_MISS:          2  FULL:          0

 AVG_CONGESTED_CYCLE: 6

CPU 0 Branch Prediction Accuracy: 99.9754% MPKI: 0.0238 Average ROB Occupancy at Mispredict: 240.151

Branch types
NOT_BRANCH: 45155624 90.3112%
BRANCH_DIRECT_JUMP: 415547 0.831094%
BRANCH_INDIRECT: 35 7e-05%
BRANCH_CONDITIONAL: 3322932 6.64586%
BRANCH_DIRECT_CALL: 552927 1.10585%
BRANCH_INDIRECT_CALL: 0 0%
BRANCH_RETURN: 552927 1.10585%
BRANCH_OTHER: 0 0%

