Initialize SIGNATURE TABLE
ST_SET: 1
ST_WAY: 256
ST_TAG_BIT: 16
ST_TAG_MASK: ffff

Initialize PATTERN TABLE
PT_SET: 512
PT_WAY: 4
SIG_DELTA_BIT: 7
C_SIG_BIT: 4
C_DELTA_BIT: 4

Initialize PREFETCH FILTER
FILTER_SET: 1024

*** ChampSim Multicore Out-of-Order Simulator ***

Warmup Instructions: 50000000
Simulation Instructions: 50000000
Number of CPUs: 1
LLC sets: 2048
LLC ways: 16
Off-chip DRAM Size: 4096 MB Channels: 1 Width: 64-bit Data Rate: 3200 MT/s

CPU 0 runs /home/ykhodke/ChampSim/dpc3_traces/649.fotonik3d_s-1176B.champsimtrace.xz
L1I D-JOLT instruction prefetcher has been constructed!
CPU 0 L1D next line prefetcher
Heartbeat CPU 0 instructions: 10000000 cycles: 4041190 heartbeat IPC: 2.47452 cumulative IPC: 2.47452 (Simulation time: 0 hr 0 min 13 sec) 
Heartbeat CPU 0 instructions: 20000002 cycles: 8082278 heartbeat IPC: 2.47458 cumulative IPC: 2.47455 (Simulation time: 0 hr 0 min 26 sec) 
Heartbeat CPU 0 instructions: 30000001 cycles: 12123442 heartbeat IPC: 2.47453 cumulative IPC: 2.47454 (Simulation time: 0 hr 0 min 39 sec) 
Heartbeat CPU 0 instructions: 40000003 cycles: 16164621 heartbeat IPC: 2.47453 cumulative IPC: 2.47454 (Simulation time: 0 hr 0 min 52 sec) 
Heartbeat CPU 0 instructions: 50000002 cycles: 20205727 heartbeat IPC: 2.47457 cumulative IPC: 2.47455 (Simulation time: 0 hr 1 min 5 sec) 

Warmup complete CPU 0 instructions: 50000002 cycles: 20205727 (Simulation time: 0 hr 1 min 5 sec) 

Heartbeat CPU 0 instructions: 60000000 cycles: 27807276 heartbeat IPC: 1.31552 cumulative IPC: 1.31552 (Simulation time: 0 hr 1 min 18 sec) 
Heartbeat CPU 0 instructions: 70000000 cycles: 35497756 heartbeat IPC: 1.30031 cumulative IPC: 1.30787 (Simulation time: 0 hr 1 min 32 sec) 
Heartbeat CPU 0 instructions: 80000000 cycles: 43177748 heartbeat IPC: 1.30208 cumulative IPC: 1.30594 (Simulation time: 0 hr 1 min 46 sec) 
Heartbeat CPU 0 instructions: 90000002 cycles: 50799367 heartbeat IPC: 1.31206 cumulative IPC: 1.30746 (Simulation time: 0 hr 1 min 59 sec) 
Heartbeat CPU 0 instructions: 100000000 cycles: 58435226 heartbeat IPC: 1.30961 cumulative IPC: 1.30789 (Simulation time: 0 hr 2 min 13 sec) 
Finished CPU 0 instructions: 50000002 cycles: 38229500 cumulative IPC: 1.30789 (Simulation time: 0 hr 2 min 13 sec) 

ChampSim completed all CPUs

Region of Interest Statistics

CPU 0 cumulative IPC: 1.30789 instructions: 50000002 cycles: 38229500
L1D TOTAL     ACCESS:   16295004  HIT:   15630975  MISS:     664029
L1D LOAD      ACCESS:    6842420  HIT:    6536580  MISS:     305840
L1D RFO       ACCESS:    3508747  HIT:    3508093  MISS:        654
L1D PREFETCH  ACCESS:    5943837  HIT:    5586302  MISS:     357535
L1D WRITEBACK ACCESS:          0  HIT:          0  MISS:          0
L1D PREFETCH  REQUESTED:    7156868  ISSUED:    7115680  USEFUL:     355075  USELESS:       2474
L1D AVERAGE MISS LATENCY: 32.4323 cycles
L1I TOTAL     ACCESS:    7354003  HIT:    7354003  MISS:          0
L1I LOAD      ACCESS:    7354003  HIT:    7354003  MISS:          0
L1I RFO       ACCESS:          0  HIT:          0  MISS:          0
L1I PREFETCH  ACCESS:          0  HIT:          0  MISS:          0
L1I WRITEBACK ACCESS:          0  HIT:          0  MISS:          0
L1I PREFETCH  REQUESTED:          0  ISSUED:          0  USEFUL:          0  USELESS:          0
L1I AVERAGE MISS LATENCY: -nan cycles
L2C TOTAL     ACCESS:    1529354  HIT:    1088333  MISS:     441021
L2C LOAD      ACCESS:      14298  HIT:       6800  MISS:       7498
L2C RFO       ACCESS:        654  HIT:        650  MISS:          4
L2C PREFETCH  ACCESS:    1075171  HIT:     641652  MISS:     433519
L2C WRITEBACK ACCESS:     439231  HIT:     439231  MISS:          0
L2C PREFETCH  REQUESTED:    1055424  ISSUED:    1055145  USEFUL:        532  USELESS:     433000
L2C AVERAGE MISS LATENCY: 124.573 cycles
LLC TOTAL     ACCESS:    1015286  HIT:     575400  MISS:     439886
LLC LOAD      ACCESS:       7490  HIT:         92  MISS:       7398
LLC RFO       ACCESS:          4  HIT:          4  MISS:          0
LLC PREFETCH  ACCESS:     569523  HIT:     137039  MISS:     432484
LLC WRITEBACK ACCESS:     438269  HIT:     438265  MISS:          4
LLC PREFETCH  REQUESTED:          0  ISSUED:          0  USEFUL:         24  USELESS:     432488
LLC AVERAGE MISS LATENCY: 183.476 cycles
Major fault: 0 Minor fault: 13773
CPU 0 L1D next line prefetcher final stats

DRAM Statistics
 CHANNEL 0
 RQ ROW_BUFFER_HIT:      14842  ROW_BUFFER_MISS:     425040
 DBUS_CONGESTED:     405220
 WQ ROW_BUFFER_HIT:     316287  ROW_BUFFER_MISS:     121662  FULL:          0

 AVG_CONGESTED_CYCLE: 6

CPU 0 Branch Prediction Accuracy: 99.9751% MPKI: 0.00438 Average ROB Occupancy at Mispredict: 308.635

Branch types
NOT_BRANCH: 49121932 98.2439%
BRANCH_DIRECT_JUMP: 218 0.000436%
BRANCH_INDIRECT: 0 0%
BRANCH_CONDITIONAL: 877404 1.75481%
BRANCH_DIRECT_CALL: 218 0.000436%
BRANCH_INDIRECT_CALL: 0 0%
BRANCH_RETURN: 218 0.000436%
BRANCH_OTHER: 0 0%

