Initialize SIGNATURE TABLE
ST_SET: 1
ST_WAY: 256
ST_TAG_BIT: 16
ST_TAG_MASK: ffff

Initialize PATTERN TABLE
PT_SET: 512
PT_WAY: 4
SIG_DELTA_BIT: 7
C_SIG_BIT: 4
C_DELTA_BIT: 4

Initialize PREFETCH FILTER
FILTER_SET: 1024

*** ChampSim Multicore Out-of-Order Simulator ***

Warmup Instructions: 50000000
Simulation Instructions: 50000000
Number of CPUs: 1
LLC sets: 2048
LLC ways: 16
Off-chip DRAM Size: 4096 MB Channels: 1 Width: 64-bit Data Rate: 3200 MT/s

CPU 0 runs /home/ykhodke/ChampSim/dpc3_traces/654.roms_s-842B.champsimtrace.xz
L1I D-JOLT instruction prefetcher has been constructed!
CPU 0 L1D next line prefetcher
Heartbeat CPU 0 instructions: 10000000 cycles: 2986206 heartbeat IPC: 3.34873 cumulative IPC: 3.34873 (Simulation time: 0 hr 0 min 11 sec) 
Heartbeat CPU 0 instructions: 20000003 cycles: 6015371 heartbeat IPC: 3.30124 cumulative IPC: 3.32482 (Simulation time: 0 hr 0 min 22 sec) 
Heartbeat CPU 0 instructions: 30000000 cycles: 8979334 heartbeat IPC: 3.37386 cumulative IPC: 3.34101 (Simulation time: 0 hr 0 min 34 sec) 
Heartbeat CPU 0 instructions: 40000000 cycles: 12016623 heartbeat IPC: 3.29241 cumulative IPC: 3.32872 (Simulation time: 0 hr 0 min 45 sec) 
Heartbeat CPU 0 instructions: 50000003 cycles: 15217515 heartbeat IPC: 3.12413 cumulative IPC: 3.28569 (Simulation time: 0 hr 0 min 57 sec) 

Warmup complete CPU 0 instructions: 50000003 cycles: 15217515 (Simulation time: 0 hr 0 min 57 sec) 

Heartbeat CPU 0 instructions: 60000000 cycles: 20884115 heartbeat IPC: 1.76473 cumulative IPC: 1.76473 (Simulation time: 0 hr 1 min 7 sec) 
Heartbeat CPU 0 instructions: 70000001 cycles: 26527444 heartbeat IPC: 1.772 cumulative IPC: 1.76836 (Simulation time: 0 hr 1 min 17 sec) 
Heartbeat CPU 0 instructions: 80000001 cycles: 32191825 heartbeat IPC: 1.76542 cumulative IPC: 1.76738 (Simulation time: 0 hr 1 min 27 sec) 
Heartbeat CPU 0 instructions: 90000000 cycles: 37881841 heartbeat IPC: 1.75746 cumulative IPC: 1.76489 (Simulation time: 0 hr 1 min 37 sec) 
Heartbeat CPU 0 instructions: 100000002 cycles: 43481996 heartbeat IPC: 1.78567 cumulative IPC: 1.769 (Simulation time: 0 hr 1 min 47 sec) 
Finished CPU 0 instructions: 50000000 cycles: 28264489 cumulative IPC: 1.769 (Simulation time: 0 hr 1 min 47 sec) 

ChampSim completed all CPUs

Region of Interest Statistics

CPU 0 cumulative IPC: 1.769 instructions: 50000000 cycles: 28264489
L1D TOTAL     ACCESS:   13246021  HIT:   13239094  MISS:       6927
L1D LOAD      ACCESS:    4790205  HIT:    4790024  MISS:        181
L1D RFO       ACCESS:    3672894  HIT:    3670129  MISS:       2765
L1D PREFETCH  ACCESS:    4782922  HIT:    4778941  MISS:       3981
L1D WRITEBACK ACCESS:          0  HIT:          0  MISS:          0
L1D PREFETCH  REQUESTED:    4790529  ISSUED:    4788766  USEFUL:       3849  USELESS:        110
L1D AVERAGE MISS LATENCY: 63.8994 cycles
L1I TOTAL     ACCESS:    8980006  HIT:    8980006  MISS:          0
L1I LOAD      ACCESS:    8612539  HIT:    8612539  MISS:          0
L1I RFO       ACCESS:          0  HIT:          0  MISS:          0
L1I PREFETCH  ACCESS:     367467  HIT:     367467  MISS:          0
L1I WRITEBACK ACCESS:          0  HIT:          0  MISS:          0
L1I PREFETCH  REQUESTED:     383143  ISSUED:     383143  USEFUL:          0  USELESS:          0
L1I AVERAGE MISS LATENCY: -nan cycles
L2C TOTAL     ACCESS:      12601  HIT:       5902  MISS:       6699
L2C LOAD      ACCESS:        168  HIT:         44  MISS:        124
L2C RFO       ACCESS:       2765  HIT:        124  MISS:       2641
L2C PREFETCH  ACCESS:       6893  HIT:       2959  MISS:       3934
L2C WRITEBACK ACCESS:       2775  HIT:       2775  MISS:          0
L2C PREFETCH  REQUESTED:      34514  ISSUED:      34493  USEFUL:          0  USELESS:       3105
L2C AVERAGE MISS LATENCY: 64.4362 cycles
LLC TOTAL     ACCESS:      39936  HIT:      32886  MISS:       7050
LLC LOAD      ACCESS:        124  HIT:          0  MISS:        124
LLC RFO       ACCESS:       2641  HIT:         16  MISS:       2625
LLC PREFETCH  ACCESS:      34548  HIT:      30247  MISS:       4301
LLC WRITEBACK ACCESS:       2623  HIT:       2623  MISS:          0
LLC PREFETCH  REQUESTED:          0  ISSUED:          0  USEFUL:          1  USELESS:          0
LLC AVERAGE MISS LATENCY: 82.3668 cycles
Major fault: 0 Minor fault: 437
CPU 0 L1D next line prefetcher final stats

DRAM Statistics
 CHANNEL 0
 RQ ROW_BUFFER_HIT:       6700  ROW_BUFFER_MISS:        350
 DBUS_CONGESTED:       2006
 WQ ROW_BUFFER_HIT:          0  ROW_BUFFER_MISS:          0  FULL:          0

 AVG_CONGESTED_CYCLE: 6

CPU 0 Branch Prediction Accuracy: 99.9355% MPKI: 0.10634 Average ROB Occupancy at Mispredict: 33.7147

Branch types
NOT_BRANCH: 41749893 83.4998%
BRANCH_DIRECT_JUMP: 819653 1.63931%
BRANCH_INDIRECT: 31348 0.062696%
BRANCH_CONDITIONAL: 6715519 13.431%
BRANCH_DIRECT_CALL: 341636 0.683272%
BRANCH_INDIRECT_CALL: 0 0%
BRANCH_RETURN: 341632 0.683264%
BRANCH_OTHER: 0 0%

