Initialize SIGNATURE TABLE
ST_SET: 1
ST_WAY: 256
ST_TAG_BIT: 16
ST_TAG_MASK: ffff

Initialize PATTERN TABLE
PT_SET: 512
PT_WAY: 4
SIG_DELTA_BIT: 7
C_SIG_BIT: 4
C_DELTA_BIT: 4

Initialize PREFETCH FILTER
FILTER_SET: 1024

*** ChampSim Multicore Out-of-Order Simulator ***

Warmup Instructions: 50000000
Simulation Instructions: 50000000
Number of CPUs: 1
LLC sets: 2048
LLC ways: 16
Off-chip DRAM Size: 4096 MB Channels: 1 Width: 64-bit Data Rate: 3200 MT/s

CPU 0 runs /home/ykhodke/ChampSim/dpc3_traces/server_004.champsimtrace.xz
L1I D-JOLT instruction prefetcher has been constructed!
CPU 0 L1D next line prefetcher
Heartbeat CPU 0 instructions: 10000002 cycles: 3226554 heartbeat IPC: 3.09928 cumulative IPC: 3.09928 (Simulation time: 0 hr 0 min 14 sec) 
Heartbeat CPU 0 instructions: 20000002 cycles: 6560180 heartbeat IPC: 2.99974 cumulative IPC: 3.0487 (Simulation time: 0 hr 0 min 28 sec) 
Heartbeat CPU 0 instructions: 30000000 cycles: 11677262 heartbeat IPC: 1.95424 cumulative IPC: 2.5691 (Simulation time: 0 hr 0 min 45 sec) 
Heartbeat CPU 0 instructions: 40000003 cycles: 15423794 heartbeat IPC: 2.66914 cumulative IPC: 2.5934 (Simulation time: 0 hr 1 min 0 sec) 
Heartbeat CPU 0 instructions: 50000003 cycles: 18649773 heartbeat IPC: 3.09983 cumulative IPC: 2.681 (Simulation time: 0 hr 1 min 14 sec) 

Warmup complete CPU 0 instructions: 50000003 cycles: 18649773 (Simulation time: 0 hr 1 min 14 sec) 

Heartbeat CPU 0 instructions: 60000002 cycles: 27235685 heartbeat IPC: 1.1647 cumulative IPC: 1.1647 (Simulation time: 0 hr 1 min 28 sec) 
Heartbeat CPU 0 instructions: 70000000 cycles: 35272311 heartbeat IPC: 1.2443 cumulative IPC: 1.20319 (Simulation time: 0 hr 1 min 43 sec) 
Heartbeat CPU 0 instructions: 80000001 cycles: 56170211 heartbeat IPC: 0.478517 cumulative IPC: 0.799564 (Simulation time: 0 hr 2 min 5 sec) 
Heartbeat CPU 0 instructions: 90000003 cycles: 71432730 heartbeat IPC: 0.6552 cumulative IPC: 0.75782 (Simulation time: 0 hr 2 min 21 sec) 
Heartbeat CPU 0 instructions: 100000003 cycles: 80142927 heartbeat IPC: 1.14808 cumulative IPC: 0.813099 (Simulation time: 0 hr 2 min 35 sec) 
Finished CPU 0 instructions: 50000000 cycles: 61493154 cumulative IPC: 0.813099 (Simulation time: 0 hr 2 min 35 sec) 

ChampSim completed all CPUs

Region of Interest Statistics

CPU 0 cumulative IPC: 0.813099 instructions: 50000000 cycles: 61493154
L1D TOTAL     ACCESS:   21636706  HIT:   17565706  MISS:    4071000
L1D LOAD      ACCESS:    8601438  HIT:    6583183  MISS:    2018255
L1D RFO       ACCESS:    4643775  HIT:    4537009  MISS:     106766
L1D PREFETCH  ACCESS:    8391493  HIT:    6445514  MISS:    1945979
L1D WRITEBACK ACCESS:          0  HIT:          0  MISS:          0
L1D PREFETCH  REQUESTED:    8636100  ISSUED:    8546991  USEFUL:     106389  USELESS:    1839584
L1D AVERAGE MISS LATENCY: 22.9029 cycles
L1I TOTAL     ACCESS:   16708330  HIT:   15175881  MISS:    1532449
L1I LOAD      ACCESS:   10719232  HIT:   10602294  MISS:     116938
L1I RFO       ACCESS:          0  HIT:          0  MISS:          0
L1I PREFETCH  ACCESS:    5989098  HIT:    4573587  MISS:    1415511
L1I WRITEBACK ACCESS:          0  HIT:          0  MISS:          0
L1I PREFETCH  REQUESTED:    6492642  ISSUED:    6255159  USEFUL:    1028805  USELESS:     386575
L1I AVERAGE MISS LATENCY: 34.208 cycles
L2C TOTAL     ACCESS:    7207117  HIT:    6142474  MISS:    1064643
L2C LOAD      ACCESS:    2083107  HIT:    1830955  MISS:     252152
L2C RFO       ACCESS:     105586  HIT:      57446  MISS:      48140
L2C PREFETCH  ACCESS:    4773404  HIT:    4010489  MISS:     762915
L2C WRITEBACK ACCESS:     245020  HIT:     243584  MISS:       1436
L2C PREFETCH  REQUESTED:    6315434  ISSUED:    6313680  USEFUL:      26587  USELESS:     736382
L2C AVERAGE MISS LATENCY: 57.3442 cycles
LLC TOTAL     ACCESS:    2299719  HIT:    2070292  MISS:     229427
LLC LOAD      ACCESS:     251742  HIT:     207030  MISS:      44712
LLC RFO       ACCESS:      48135  HIT:      33685  MISS:      14450
LLC PREFETCH  ACCESS:    1860405  HIT:    1690539  MISS:     169866
LLC WRITEBACK ACCESS:     139437  HIT:     139038  MISS:        399
LLC PREFETCH  REQUESTED:          0  ISSUED:          0  USEFUL:      22100  USELESS:     148568
LLC AVERAGE MISS LATENCY: 173.688 cycles
Major fault: 0 Minor fault: 7602
CPU 0 L1D next line prefetcher final stats

DRAM Statistics
 CHANNEL 0
 RQ ROW_BUFFER_HIT:      44847  ROW_BUFFER_MISS:     184158
 DBUS_CONGESTED:      92385
 WQ ROW_BUFFER_HIT:      11250  ROW_BUFFER_MISS:      41798  FULL:          0

 AVG_CONGESTED_CYCLE: 5

CPU 0 Branch Prediction Accuracy: 98.1603% MPKI: 3.89124 Average ROB Occupancy at Mispredict: 65.7975

Branch types
NOT_BRANCH: 39423755 78.8475%
BRANCH_DIRECT_JUMP: 551642 1.10328%
BRANCH_INDIRECT: 139368 0.278736%
BRANCH_CONDITIONAL: 7920858 15.8417%
BRANCH_DIRECT_CALL: 776072 1.55214%
BRANCH_INDIRECT_CALL: 194644 0.389288%
BRANCH_RETURN: 993311 1.98662%
BRANCH_OTHER: 0 0%

