Initialize SIGNATURE TABLE
ST_SET: 1
ST_WAY: 256
ST_TAG_BIT: 16
ST_TAG_MASK: ffff

Initialize PATTERN TABLE
PT_SET: 512
PT_WAY: 4
SIG_DELTA_BIT: 7
C_SIG_BIT: 4
C_DELTA_BIT: 4

Initialize PREFETCH FILTER
FILTER_SET: 1024

*** ChampSim Multicore Out-of-Order Simulator ***

Warmup Instructions: 50000000
Simulation Instructions: 50000000
Number of CPUs: 1
LLC sets: 2048
LLC ways: 16
Off-chip DRAM Size: 4096 MB Channels: 1 Width: 64-bit Data Rate: 3200 MT/s

CPU 0 runs /home/ykhodke/ChampSim/dpc3_traces/server_015.champsimtrace.xz
L1I D-JOLT instruction prefetcher has been constructed!
CPU 0 L1D next line prefetcher
Heartbeat CPU 0 instructions: 10000002 cycles: 3519423 heartbeat IPC: 2.84138 cumulative IPC: 2.84138 (Simulation time: 0 hr 0 min 15 sec) 
Heartbeat CPU 0 instructions: 20000001 cycles: 7107160 heartbeat IPC: 2.78727 cumulative IPC: 2.81406 (Simulation time: 0 hr 0 min 30 sec) 
Heartbeat CPU 0 instructions: 30000001 cycles: 10646135 heartbeat IPC: 2.82568 cumulative IPC: 2.81792 (Simulation time: 0 hr 0 min 45 sec) 
Heartbeat CPU 0 instructions: 40000002 cycles: 14194176 heartbeat IPC: 2.81846 cumulative IPC: 2.81806 (Simulation time: 0 hr 1 min 1 sec) 
Heartbeat CPU 0 instructions: 50000002 cycles: 17742436 heartbeat IPC: 2.81828 cumulative IPC: 2.8181 (Simulation time: 0 hr 1 min 16 sec) 

Warmup complete CPU 0 instructions: 50000002 cycles: 17742436 (Simulation time: 0 hr 1 min 16 sec) 

Heartbeat CPU 0 instructions: 60000002 cycles: 24039833 heartbeat IPC: 1.58796 cumulative IPC: 1.58796 (Simulation time: 0 hr 1 min 32 sec) 
Heartbeat CPU 0 instructions: 70000003 cycles: 30348998 heartbeat IPC: 1.585 cumulative IPC: 1.58648 (Simulation time: 0 hr 1 min 48 sec) 
Heartbeat CPU 0 instructions: 80000000 cycles: 36658166 heartbeat IPC: 1.58499 cumulative IPC: 1.58598 (Simulation time: 0 hr 2 min 4 sec) 
Heartbeat CPU 0 instructions: 90000000 cycles: 42969930 heartbeat IPC: 1.58434 cumulative IPC: 1.58557 (Simulation time: 0 hr 2 min 20 sec) 
Heartbeat CPU 0 instructions: 100000002 cycles: 49279691 heartbeat IPC: 1.58485 cumulative IPC: 1.58543 (Simulation time: 0 hr 2 min 37 sec) 
Finished CPU 0 instructions: 50000000 cycles: 31537255 cumulative IPC: 1.58543 (Simulation time: 0 hr 2 min 37 sec) 

ChampSim completed all CPUs

Region of Interest Statistics

CPU 0 cumulative IPC: 1.58543 instructions: 50000000 cycles: 31537255
L1D TOTAL     ACCESS:   21833162  HIT:   21816390  MISS:      16772
L1D LOAD      ACCESS:    6693956  HIT:    6693422  MISS:        534
L1D RFO       ACCESS:    8561358  HIT:    8561263  MISS:         95
L1D PREFETCH  ACCESS:    6577848  HIT:    6561705  MISS:      16143
L1D WRITEBACK ACCESS:          0  HIT:          0  MISS:          0
L1D PREFETCH  REQUESTED:    6694012  ISSUED:    6582258  USEFUL:         84  USELESS:      16056
L1D AVERAGE MISS LATENCY: 16.2453 cycles
L1I TOTAL     ACCESS:   20134772  HIT:   15927509  MISS:    4207263
L1I LOAD      ACCESS:    9803645  HIT:    9772399  MISS:      31246
L1I RFO       ACCESS:          0  HIT:          0  MISS:          0
L1I PREFETCH  ACCESS:   10331127  HIT:    6155110  MISS:    4176017
L1I WRITEBACK ACCESS:          0  HIT:          0  MISS:          0
L1I PREFETCH  REQUESTED:   10770527  ISSUED:   10648295  USEFUL:    2834676  USELESS:    1341319
L1I AVERAGE MISS LATENCY: 14.3628 cycles
L2C TOTAL     ACCESS:    5656045  HIT:    5655706  MISS:        339
L2C LOAD      ACCESS:      15323  HIT:      15256  MISS:         67
L2C RFO       ACCESS:         94  HIT:         87  MISS:          7
L2C PREFETCH  ACCESS:    5640278  HIT:    5640015  MISS:        263
L2C WRITEBACK ACCESS:        350  HIT:        348  MISS:          2
L2C PREFETCH  REQUESTED:    3471486  ISSUED:    3471430  USEFUL:        135  USELESS:        132
L2C AVERAGE MISS LATENCY: 106.316 cycles
LLC TOTAL     ACCESS:     693580  HIT:     692894  MISS:        686
LLC LOAD      ACCESS:         67  HIT:         52  MISS:         15
LLC RFO       ACCESS:          7  HIT:          5  MISS:          2
LLC PREFETCH  ACCESS:     693407  HIT:     692741  MISS:        666
LLC WRITEBACK ACCESS:         99  HIT:         96  MISS:          3
LLC PREFETCH  REQUESTED:          0  ISSUED:          0  USEFUL:          8  USELESS:        152
LLC AVERAGE MISS LATENCY: 325.433 cycles
Major fault: 0 Minor fault: 1893
CPU 0 L1D next line prefetcher final stats

DRAM Statistics
 CHANNEL 0
 RQ ROW_BUFFER_HIT:        126  ROW_BUFFER_MISS:        557
 DBUS_CONGESTED:        467
 WQ ROW_BUFFER_HIT:         88  ROW_BUFFER_MISS:        410  FULL:          0

 AVG_CONGESTED_CYCLE: 6

CPU 0 Branch Prediction Accuracy: 99.9085% MPKI: 0.15428 Average ROB Occupancy at Mispredict: 296.293

Branch types
NOT_BRANCH: 41573156 83.1463%
BRANCH_DIRECT_JUMP: 436254 0.872508%
BRANCH_INDIRECT: 0 0%
BRANCH_CONDITIONAL: 5395898 10.7918%
BRANCH_DIRECT_CALL: 1173391 2.34678%
BRANCH_INDIRECT_CALL: 123912 0.247824%
BRANCH_RETURN: 1297311 2.59462%
BRANCH_OTHER: 0 0%

