Initialize SIGNATURE TABLE
ST_SET: 1
ST_WAY: 256
ST_TAG_BIT: 16
ST_TAG_MASK: ffff

Initialize PATTERN TABLE
PT_SET: 512
PT_WAY: 4
SIG_DELTA_BIT: 7
C_SIG_BIT: 4
C_DELTA_BIT: 4

Initialize PREFETCH FILTER
FILTER_SET: 1024

*** ChampSim Multicore Out-of-Order Simulator ***

Warmup Instructions: 50000000
Simulation Instructions: 50000000
Number of CPUs: 1
LLC sets: 2048
LLC ways: 16
Off-chip DRAM Size: 4096 MB Channels: 1 Width: 64-bit Data Rate: 3200 MT/s

CPU 0 runs /home/ykhodke/ChampSim/dpc3_traces/server_002.champsimtrace.xz
L1I D-JOLT instruction prefetcher has been constructed!
CPU 0 L1D next line prefetcher
Heartbeat CPU 0 instructions: 10000000 cycles: 3581227 heartbeat IPC: 2.79234 cumulative IPC: 2.79234 (Simulation time: 0 hr 0 min 14 sec) 
Heartbeat CPU 0 instructions: 20000002 cycles: 7170087 heartbeat IPC: 2.7864 cumulative IPC: 2.78937 (Simulation time: 0 hr 0 min 29 sec) 
Heartbeat CPU 0 instructions: 30000000 cycles: 10710828 heartbeat IPC: 2.82427 cumulative IPC: 2.8009 (Simulation time: 0 hr 0 min 44 sec) 
Heartbeat CPU 0 instructions: 40000000 cycles: 14261073 heartbeat IPC: 2.81671 cumulative IPC: 2.80484 (Simulation time: 0 hr 0 min 58 sec) 
Heartbeat CPU 0 instructions: 50000001 cycles: 17808844 heartbeat IPC: 2.81867 cumulative IPC: 2.80759 (Simulation time: 0 hr 1 min 13 sec) 

Warmup complete CPU 0 instructions: 50000001 cycles: 17808844 (Simulation time: 0 hr 1 min 13 sec) 

Heartbeat CPU 0 instructions: 60000000 cycles: 24250158 heartbeat IPC: 1.55248 cumulative IPC: 1.55248 (Simulation time: 0 hr 1 min 29 sec) 
Heartbeat CPU 0 instructions: 70000003 cycles: 30683763 heartbeat IPC: 1.55434 cumulative IPC: 1.55341 (Simulation time: 0 hr 1 min 45 sec) 
Heartbeat CPU 0 instructions: 80000003 cycles: 37119966 heartbeat IPC: 1.55371 cumulative IPC: 1.55351 (Simulation time: 0 hr 2 min 1 sec) 
Heartbeat CPU 0 instructions: 90000002 cycles: 43553713 heartbeat IPC: 1.5543 cumulative IPC: 1.55371 (Simulation time: 0 hr 2 min 17 sec) 
Heartbeat CPU 0 instructions: 100000003 cycles: 49987294 heartbeat IPC: 1.55434 cumulative IPC: 1.55384 (Simulation time: 0 hr 2 min 33 sec) 
Finished CPU 0 instructions: 50000002 cycles: 32178450 cumulative IPC: 1.55383 (Simulation time: 0 hr 2 min 33 sec) 

ChampSim completed all CPUs

Region of Interest Statistics

CPU 0 cumulative IPC: 1.55383 instructions: 50000002 cycles: 32178450
L1D TOTAL     ACCESS:   21522330  HIT:   21521521  MISS:        809
L1D LOAD      ACCESS:    6600792  HIT:    6600416  MISS:        376
L1D RFO       ACCESS:    8433019  HIT:    8432907  MISS:        112
L1D PREFETCH  ACCESS:    6488519  HIT:    6488198  MISS:        321
L1D WRITEBACK ACCESS:          0  HIT:          0  MISS:          0
L1D PREFETCH  REQUESTED:    6600842  ISSUED:    6495888  USEFUL:         91  USELESS:        231
L1D AVERAGE MISS LATENCY: 43.3968 cycles
L1I TOTAL     ACCESS:   19607390  HIT:   15684606  MISS:    3922784
L1I LOAD      ACCESS:    9925734  HIT:    9894701  MISS:      31033
L1I RFO       ACCESS:          0  HIT:          0  MISS:          0
L1I PREFETCH  ACCESS:    9681656  HIT:    5789905  MISS:    3891751
L1I WRITEBACK ACCESS:          0  HIT:          0  MISS:          0
L1I PREFETCH  REQUESTED:   10135616  ISSUED:    9949988  USEFUL:    2384088  USELESS:    1507655
L1I AVERAGE MISS LATENCY: 14.4266 cycles
L2C TOTAL     ACCESS:    5536688  HIT:    5536366  MISS:        322
L2C LOAD      ACCESS:      22856  HIT:      22790  MISS:         66
L2C RFO       ACCESS:        112  HIT:        110  MISS:          2
L2C PREFETCH  ACCESS:    5513385  HIT:    5513133  MISS:        252
L2C WRITEBACK ACCESS:        335  HIT:        333  MISS:          2
L2C PREFETCH  REQUESTED:    3956464  ISSUED:    3956201  USEFUL:        114  USELESS:        124
L2C AVERAGE MISS LATENCY: 143.096 cycles
LLC TOTAL     ACCESS:     490781  HIT:     490042  MISS:        739
LLC LOAD      ACCESS:         66  HIT:         52  MISS:         14
LLC RFO       ACCESS:          2  HIT:          0  MISS:          2
LLC PREFETCH  ACCESS:     490616  HIT:     489895  MISS:        721
LLC WRITEBACK ACCESS:         97  HIT:         95  MISS:          2
LLC PREFETCH  REQUESTED:          0  ISSUED:          0  USEFUL:         11  USELESS:        166
LLC AVERAGE MISS LATENCY: 591.632 cycles
Major fault: 0 Minor fault: 1872
CPU 0 L1D next line prefetcher final stats

DRAM Statistics
 CHANNEL 0
 RQ ROW_BUFFER_HIT:        152  ROW_BUFFER_MISS:        585
 DBUS_CONGESTED:        565
 WQ ROW_BUFFER_HIT:         73  ROW_BUFFER_MISS:        439  FULL:          0

 AVG_CONGESTED_CYCLE: 6

CPU 0 Branch Prediction Accuracy: 99.8789% MPKI: 0.20388 Average ROB Occupancy at Mispredict: 274.211

Branch types
NOT_BRANCH: 41580695 83.1614%
BRANCH_DIRECT_JUMP: 461630 0.92326%
BRANCH_INDIRECT: 0 0%
BRANCH_CONDITIONAL: 5376437 10.7529%
BRANCH_DIRECT_CALL: 1175775 2.35155%
BRANCH_INDIRECT_CALL: 114840 0.22968%
BRANCH_RETURN: 1290625 2.58125%
BRANCH_OTHER: 0 0%

