Initialize SIGNATURE TABLE
ST_SET: 1
ST_WAY: 256
ST_TAG_BIT: 16
ST_TAG_MASK: ffff

Initialize PATTERN TABLE
PT_SET: 512
PT_WAY: 4
SIG_DELTA_BIT: 7
C_SIG_BIT: 4
C_DELTA_BIT: 4

Initialize PREFETCH FILTER
FILTER_SET: 1024

*** ChampSim Multicore Out-of-Order Simulator ***

Warmup Instructions: 50000000
Simulation Instructions: 50000000
Number of CPUs: 1
LLC sets: 2048
LLC ways: 16
Off-chip DRAM Size: 4096 MB Channels: 1 Width: 64-bit Data Rate: 3200 MT/s

CPU 0 runs /home/ykhodke/ChampSim/dpc3_traces/server_025.champsimtrace.xz
L1I D-JOLT instruction prefetcher has been constructed!
CPU 0 L1D next line prefetcher
Heartbeat CPU 0 instructions: 10000003 cycles: 3524909 heartbeat IPC: 2.83695 cumulative IPC: 2.83695 (Simulation time: 0 hr 0 min 15 sec) 
Heartbeat CPU 0 instructions: 20000000 cycles: 7056960 heartbeat IPC: 2.83122 cumulative IPC: 2.83408 (Simulation time: 0 hr 0 min 30 sec) 
Heartbeat CPU 0 instructions: 30000001 cycles: 10580967 heartbeat IPC: 2.83768 cumulative IPC: 2.83528 (Simulation time: 0 hr 0 min 45 sec) 
Heartbeat CPU 0 instructions: 40000003 cycles: 14110833 heartbeat IPC: 2.83297 cumulative IPC: 2.8347 (Simulation time: 0 hr 1 min 0 sec) 
Heartbeat CPU 0 instructions: 50000001 cycles: 17638642 heartbeat IPC: 2.83462 cumulative IPC: 2.83469 (Simulation time: 0 hr 1 min 15 sec) 

Warmup complete CPU 0 instructions: 50000001 cycles: 17638642 (Simulation time: 0 hr 1 min 15 sec) 

Heartbeat CPU 0 instructions: 60000002 cycles: 24422457 heartbeat IPC: 1.4741 cumulative IPC: 1.4741 (Simulation time: 0 hr 1 min 31 sec) 
Heartbeat CPU 0 instructions: 70000000 cycles: 31313153 heartbeat IPC: 1.45123 cumulative IPC: 1.46258 (Simulation time: 0 hr 1 min 47 sec) 
Heartbeat CPU 0 instructions: 80000002 cycles: 38123909 heartbeat IPC: 1.46827 cumulative IPC: 1.46447 (Simulation time: 0 hr 2 min 3 sec) 
Heartbeat CPU 0 instructions: 90000001 cycles: 44600250 heartbeat IPC: 1.54408 cumulative IPC: 1.48359 (Simulation time: 0 hr 2 min 19 sec) 
Heartbeat CPU 0 instructions: 100000003 cycles: 50794763 heartbeat IPC: 1.61433 cumulative IPC: 1.50802 (Simulation time: 0 hr 2 min 34 sec) 
Finished CPU 0 instructions: 50000002 cycles: 33156121 cumulative IPC: 1.50802 (Simulation time: 0 hr 2 min 34 sec) 

ChampSim completed all CPUs

Region of Interest Statistics

CPU 0 cumulative IPC: 1.50802 instructions: 50000002 cycles: 33156121
L1D TOTAL     ACCESS:   19969352  HIT:   18543954  MISS:    1425398
L1D LOAD      ACCESS:    6950591  HIT:    6331731  MISS:     618860
L1D RFO       ACCESS:    6379191  HIT:    6131035  MISS:     248156
L1D PREFETCH  ACCESS:    6639570  HIT:    6081188  MISS:     558382
L1D WRITEBACK ACCESS:          0  HIT:          0  MISS:          0
L1D PREFETCH  REQUESTED:    6990401  ISSUED:    6815152  USEFUL:     131124  USELESS:     427252
L1D AVERAGE MISS LATENCY: 23.1755 cycles
L1I TOTAL     ACCESS:   15325357  HIT:   12509867  MISS:    2815490
L1I LOAD      ACCESS:    9498720  HIT:    9449369  MISS:      49351
L1I RFO       ACCESS:          0  HIT:          0  MISS:          0
L1I PREFETCH  ACCESS:    5826637  HIT:    3060498  MISS:    2766139
L1I WRITEBACK ACCESS:          0  HIT:          0  MISS:          0
L1I PREFETCH  REQUESTED:    6161568  ISSUED:    6108612  USEFUL:    2420743  USELESS:     345389
L1I AVERAGE MISS LATENCY: 19.6567 cycles
L2C TOTAL     ACCESS:    5915600  HIT:    5190915  MISS:     724685
L2C LOAD      ACCESS:     634102  HIT:     516402  MISS:     117700
L2C RFO       ACCESS:     246696  HIT:     173150  MISS:      73546
L2C PREFETCH  ACCESS:    4538004  HIT:    4007397  MISS:     530607
L2C WRITEBACK ACCESS:     496798  HIT:     493966  MISS:       2832
L2C PREFETCH  REQUESTED:    4094524  ISSUED:    4088172  USEFUL:       9326  USELESS:     521146
L2C AVERAGE MISS LATENCY: 37.6109 cycles
LLC TOTAL     ACCESS:    1961857  HIT:    1931644  MISS:      30213
LLC LOAD      ACCESS:     117576  HIT:     114257  MISS:       3319
LLC RFO       ACCESS:      73543  HIT:      62695  MISS:      10848
LLC PREFETCH  ACCESS:    1641847  HIT:    1626028  MISS:      15819
LLC WRITEBACK ACCESS:     128891  HIT:     128664  MISS:        227
LLC PREFETCH  REQUESTED:          0  ISSUED:          0  USEFUL:       1035  USELESS:      14562
LLC AVERAGE MISS LATENCY: 178.875 cycles
Major fault: 0 Minor fault: 2464
CPU 0 L1D next line prefetcher final stats

DRAM Statistics
 CHANNEL 0
 RQ ROW_BUFFER_HIT:       9630  ROW_BUFFER_MISS:      20353
 DBUS_CONGESTED:      18774
 WQ ROW_BUFFER_HIT:       1329  ROW_BUFFER_MISS:      11531  FULL:          0

 AVG_CONGESTED_CYCLE: 6

CPU 0 Branch Prediction Accuracy: 99.8142% MPKI: 0.34676 Average ROB Occupancy at Mispredict: 202.465

Branch types
NOT_BRANCH: 40668928 81.3379%
BRANCH_DIRECT_JUMP: 531701 1.0634%
BRANCH_INDIRECT: 199025 0.39805%
BRANCH_CONDITIONAL: 6211500 12.423%
BRANCH_DIRECT_CALL: 1010912 2.02182%
BRANCH_INDIRECT_CALL: 183501 0.367002%
BRANCH_RETURN: 1194416 2.38883%
BRANCH_OTHER: 0 0%

