Initialize SIGNATURE TABLE
ST_SET: 1
ST_WAY: 256
ST_TAG_BIT: 16
ST_TAG_MASK: ffff

Initialize PATTERN TABLE
PT_SET: 512
PT_WAY: 4
SIG_DELTA_BIT: 7
C_SIG_BIT: 4
C_DELTA_BIT: 4

Initialize PREFETCH FILTER
FILTER_SET: 1024

*** ChampSim Multicore Out-of-Order Simulator ***

Warmup Instructions: 50000000
Simulation Instructions: 50000000
Number of CPUs: 1
LLC sets: 2048
LLC ways: 16
Off-chip DRAM Size: 4096 MB Channels: 1 Width: 64-bit Data Rate: 3200 MT/s

CPU 0 runs /home/ykhodke/ChampSim/dpc3_traces/server_031.champsimtrace.xz
L1I D-JOLT instruction prefetcher has been constructed!
CPU 0 L1D next line prefetcher
Heartbeat CPU 0 instructions: 10000003 cycles: 3522927 heartbeat IPC: 2.83855 cumulative IPC: 2.83855 (Simulation time: 0 hr 0 min 15 sec) 
Heartbeat CPU 0 instructions: 20000002 cycles: 7045098 heartbeat IPC: 2.83916 cumulative IPC: 2.83885 (Simulation time: 0 hr 0 min 30 sec) 
Heartbeat CPU 0 instructions: 30000002 cycles: 10566435 heartbeat IPC: 2.83983 cumulative IPC: 2.83918 (Simulation time: 0 hr 0 min 46 sec) 
Heartbeat CPU 0 instructions: 40000003 cycles: 14082407 heartbeat IPC: 2.84416 cumulative IPC: 2.84042 (Simulation time: 0 hr 1 min 1 sec) 
Heartbeat CPU 0 instructions: 50000001 cycles: 17600761 heartbeat IPC: 2.84224 cumulative IPC: 2.84079 (Simulation time: 0 hr 1 min 16 sec) 

Warmup complete CPU 0 instructions: 50000001 cycles: 17600761 (Simulation time: 0 hr 1 min 16 sec) 

Heartbeat CPU 0 instructions: 60000001 cycles: 25078200 heartbeat IPC: 1.33736 cumulative IPC: 1.33736 (Simulation time: 0 hr 1 min 33 sec) 
Heartbeat CPU 0 instructions: 70000002 cycles: 32609462 heartbeat IPC: 1.3278 cumulative IPC: 1.33256 (Simulation time: 0 hr 1 min 49 sec) 
*** Reached end of trace for Core: 0 Repeating trace: /home/ykhodke/ChampSim/dpc3_traces/server_031.champsimtrace.xz
Heartbeat CPU 0 instructions: 80000000 cycles: 40000264 heartbeat IPC: 1.35303 cumulative IPC: 1.33932 (Simulation time: 0 hr 2 min 6 sec) 
Heartbeat CPU 0 instructions: 90000003 cycles: 47426392 heartbeat IPC: 1.3466 cumulative IPC: 1.34113 (Simulation time: 0 hr 2 min 23 sec) 
Heartbeat CPU 0 instructions: 100000000 cycles: 54824175 heartbeat IPC: 1.35176 cumulative IPC: 1.34324 (Simulation time: 0 hr 2 min 40 sec) 
Finished CPU 0 instructions: 50000000 cycles: 37223416 cumulative IPC: 1.34324 (Simulation time: 0 hr 2 min 40 sec) 

ChampSim completed all CPUs

Region of Interest Statistics

CPU 0 cumulative IPC: 1.34324 instructions: 50000000 cycles: 37223416
L1D TOTAL     ACCESS:   19503042  HIT:   17598686  MISS:    1904356
L1D LOAD      ACCESS:    6758596  HIT:    5885795  MISS:     872801
L1D RFO       ACCESS:    6327197  HIT:    6036010  MISS:     291187
L1D PREFETCH  ACCESS:    6417249  HIT:    5676881  MISS:     740368
L1D WRITEBACK ACCESS:          0  HIT:          0  MISS:          0
L1D PREFETCH  REQUESTED:    6819669  ISSUED:    6705474  USEFUL:     174610  USELESS:     565763
L1D AVERAGE MISS LATENCY: 22.8109 cycles
L1I TOTAL     ACCESS:   17192556  HIT:   13657443  MISS:    3535113
L1I LOAD      ACCESS:    9732692  HIT:    9699709  MISS:      32983
L1I RFO       ACCESS:          0  HIT:          0  MISS:          0
L1I PREFETCH  ACCESS:    7459864  HIT:    3957734  MISS:    3502130
L1I WRITEBACK ACCESS:          0  HIT:          0  MISS:          0
L1I PREFETCH  REQUESTED:    8020303  ISSUED:    7889290  USEFUL:    3018410  USELESS:     483726
L1I AVERAGE MISS LATENCY: 18.0097 cycles
L2C TOTAL     ACCESS:    7782705  HIT:    7134905  MISS:     647800
L2C LOAD      ACCESS:     853276  HIT:     722809  MISS:     130467
L2C RFO       ACCESS:     289119  HIT:     244383  MISS:      44736
L2C PREFETCH  ACCESS:    6023378  HIT:    5552154  MISS:     471224
L2C WRITEBACK ACCESS:     616932  HIT:     615559  MISS:       1373
L2C PREFETCH  REQUESTED:    5607350  ISSUED:    5593237  USEFUL:       4764  USELESS:     465867
L2C AVERAGE MISS LATENCY: 44.0843 cycles
LLC TOTAL     ACCESS:    2320800  HIT:    2237167  MISS:      83633
LLC LOAD      ACCESS:     130407  HIT:     111472  MISS:      18935
LLC RFO       ACCESS:      44686  HIT:      40516  MISS:       4170
LLC PREFETCH  ACCESS:    2058894  HIT:    1998989  MISS:      59905
LLC WRITEBACK ACCESS:      86813  HIT:      86190  MISS:        623
LLC PREFETCH  REQUESTED:          0  ISSUED:          0  USEFUL:       2576  USELESS:      57260
LLC AVERAGE MISS LATENCY: 160.038 cycles
Major fault: 0 Minor fault: 6047
CPU 0 L1D next line prefetcher final stats

DRAM Statistics
 CHANNEL 0
 RQ ROW_BUFFER_HIT:      22050  ROW_BUFFER_MISS:      60951
 DBUS_CONGESTED:      33574
 WQ ROW_BUFFER_HIT:        744  ROW_BUFFER_MISS:       5207  FULL:          0

 AVG_CONGESTED_CYCLE: 5

CPU 0 Branch Prediction Accuracy: 99.6894% MPKI: 0.58048 Average ROB Occupancy at Mispredict: 143.862

Branch types
NOT_BRANCH: 40655683 81.3114%
BRANCH_DIRECT_JUMP: 546483 1.09297%
BRANCH_INDIRECT: 172433 0.344866%
BRANCH_CONDITIONAL: 6207600 12.4152%
BRANCH_DIRECT_CALL: 1018498 2.037%
BRANCH_INDIRECT_CALL: 190373 0.380746%
BRANCH_RETURN: 1208856 2.41771%
BRANCH_OTHER: 0 0%

