Initialize SIGNATURE TABLE
ST_SET: 1
ST_WAY: 256
ST_TAG_BIT: 16
ST_TAG_MASK: ffff

Initialize PATTERN TABLE
PT_SET: 512
PT_WAY: 4
SIG_DELTA_BIT: 7
C_SIG_BIT: 4
C_DELTA_BIT: 4

Initialize PREFETCH FILTER
FILTER_SET: 1024

*** ChampSim Multicore Out-of-Order Simulator ***

Warmup Instructions: 50000000
Simulation Instructions: 50000000
Number of CPUs: 1
LLC sets: 2048
LLC ways: 16
Off-chip DRAM Size: 4096 MB Channels: 1 Width: 64-bit Data Rate: 3200 MT/s

CPU 0 runs /home/ykhodke/ChampSim/dpc3_traces/server_029.champsimtrace.xz
L1I D-JOLT instruction prefetcher has been constructed!
CPU 0 L1D next line prefetcher
Heartbeat CPU 0 instructions: 10000001 cycles: 3494125 heartbeat IPC: 2.86195 cumulative IPC: 2.86195 (Simulation time: 0 hr 0 min 15 sec) 
Heartbeat CPU 0 instructions: 20000002 cycles: 6988511 heartbeat IPC: 2.86173 cumulative IPC: 2.86184 (Simulation time: 0 hr 0 min 30 sec) 
Heartbeat CPU 0 instructions: 30000003 cycles: 10484723 heartbeat IPC: 2.86024 cumulative IPC: 2.86131 (Simulation time: 0 hr 0 min 45 sec) 
Heartbeat CPU 0 instructions: 40000000 cycles: 13987762 heartbeat IPC: 2.85466 cumulative IPC: 2.85964 (Simulation time: 0 hr 1 min 0 sec) 
Heartbeat CPU 0 instructions: 50000000 cycles: 17489303 heartbeat IPC: 2.85589 cumulative IPC: 2.85889 (Simulation time: 0 hr 1 min 16 sec) 

Warmup complete CPU 0 instructions: 50000004 cycles: 17489304 (Simulation time: 0 hr 1 min 16 sec) 

Heartbeat CPU 0 instructions: 60000000 cycles: 25005300 heartbeat IPC: 1.3305 cumulative IPC: 1.3305 (Simulation time: 0 hr 1 min 32 sec) 
Heartbeat CPU 0 instructions: 70000003 cycles: 32665054 heartbeat IPC: 1.30553 cumulative IPC: 1.31789 (Simulation time: 0 hr 1 min 49 sec) 
Heartbeat CPU 0 instructions: 80000001 cycles: 40164687 heartbeat IPC: 1.3334 cumulative IPC: 1.32302 (Simulation time: 0 hr 2 min 5 sec) 
*** Reached end of trace for Core: 0 Repeating trace: /home/ykhodke/ChampSim/dpc3_traces/server_029.champsimtrace.xz
Heartbeat CPU 0 instructions: 90000000 cycles: 47583479 heartbeat IPC: 1.34793 cumulative IPC: 1.32916 (Simulation time: 0 hr 2 min 21 sec) 
Heartbeat CPU 0 instructions: 100000003 cycles: 54992799 heartbeat IPC: 1.34965 cumulative IPC: 1.33321 (Simulation time: 0 hr 2 min 38 sec) 
Finished CPU 0 instructions: 50000003 cycles: 37503496 cumulative IPC: 1.33321 (Simulation time: 0 hr 2 min 38 sec) 

ChampSim completed all CPUs

Region of Interest Statistics

CPU 0 cumulative IPC: 1.33321 instructions: 50000003 cycles: 37503496
L1D TOTAL     ACCESS:   19019776  HIT:   16923361  MISS:    2096415
L1D LOAD      ACCESS:    6716827  HIT:    5652004  MISS:    1064823
L1D RFO       ACCESS:    6103694  HIT:    5818237  MISS:     285457
L1D PREFETCH  ACCESS:    6199255  HIT:    5453120  MISS:     746135
L1D WRITEBACK ACCESS:          0  HIT:          0  MISS:          0
L1D PREFETCH  REQUESTED:    6779892  ISSUED:    6669483  USEFUL:     175952  USELESS:     570171
L1D AVERAGE MISS LATENCY: 21.8732 cycles
L1I TOTAL     ACCESS:   16858317  HIT:   13529751  MISS:    3328566
L1I LOAD      ACCESS:    9800724  HIT:    9763528  MISS:      37196
L1I RFO       ACCESS:          0  HIT:          0  MISS:          0
L1I PREFETCH  ACCESS:    7057593  HIT:    3766223  MISS:    3291370
L1I WRITEBACK ACCESS:          0  HIT:          0  MISS:          0
L1I PREFETCH  REQUESTED:    7577277  ISSUED:    7472804  USEFUL:    2914064  USELESS:     377322
L1I AVERAGE MISS LATENCY: 19.0322 cycles
L2C TOTAL     ACCESS:    7753182  HIT:    6944985  MISS:     808197
L2C LOAD      ACCESS:     946102  HIT:     785903  MISS:     160199
L2C RFO       ACCESS:     283441  HIT:     212794  MISS:      70647
L2C PREFETCH  ACCESS:    5913062  HIT:    5339740  MISS:     573322
L2C WRITEBACK ACCESS:     610577  HIT:     606548  MISS:       4029
L2C PREFETCH  REQUESTED:    6150042  ISSUED:    6131974  USEFUL:       7178  USELESS:     565612
L2C AVERAGE MISS LATENCY: 40.6408 cycles
LLC TOTAL     ACCESS:    2576813  HIT:    2500789  MISS:      76024
LLC LOAD      ACCESS:     159789  HIT:     142660  MISS:      17129
LLC RFO       ACCESS:      70644  HIT:      66994  MISS:       3650
LLC PREFETCH  ACCESS:    2227579  HIT:    2172935  MISS:      54644
LLC WRITEBACK ACCESS:     118801  HIT:     118200  MISS:        601
LLC PREFETCH  REQUESTED:          0  ISSUED:          0  USEFUL:       2455  USELESS:      53099
LLC AVERAGE MISS LATENCY: 158.408 cycles
Major fault: 0 Minor fault: 5924
CPU 0 L1D next line prefetcher final stats

DRAM Statistics
 CHANNEL 0
 RQ ROW_BUFFER_HIT:      21467  ROW_BUFFER_MISS:      53945
 DBUS_CONGESTED:      31006
 WQ ROW_BUFFER_HIT:        542  ROW_BUFFER_MISS:       4031  FULL:          0

 AVG_CONGESTED_CYCLE: 5

CPU 0 Branch Prediction Accuracy: 99.7245% MPKI: 0.51862 Average ROB Occupancy at Mispredict: 146.248

Branch types
NOT_BRANCH: 40586668 81.1733%
BRANCH_DIRECT_JUMP: 525212 1.05042%
BRANCH_INDIRECT: 166360 0.33272%
BRANCH_CONDITIONAL: 6373103 12.7462%
BRANCH_DIRECT_CALL: 989264 1.97853%
BRANCH_INDIRECT_CALL: 184984 0.369968%
BRANCH_RETURN: 1174251 2.3485%
BRANCH_OTHER: 0 0%

