Initialize SIGNATURE TABLE
ST_SET: 1
ST_WAY: 256
ST_TAG_BIT: 16
ST_TAG_MASK: ffff

Initialize PATTERN TABLE
PT_SET: 512
PT_WAY: 4
SIG_DELTA_BIT: 7
C_SIG_BIT: 4
C_DELTA_BIT: 4

Initialize PREFETCH FILTER
FILTER_SET: 1024

*** ChampSim Multicore Out-of-Order Simulator ***

Warmup Instructions: 50000000
Simulation Instructions: 50000000
Number of CPUs: 1
LLC sets: 2048
LLC ways: 16
Off-chip DRAM Size: 4096 MB Channels: 1 Width: 64-bit Data Rate: 3200 MT/s

CPU 0 runs /home/ykhodke/ChampSim/dpc3_traces/607.cactuBSSN_s-2421B.champsimtrace.xz
CPU 0 L1D next line prefetcher
Heartbeat CPU 0 instructions: 10000002 cycles: 4831298 heartbeat IPC: 2.06984 cumulative IPC: 2.06984 (Simulation time: 0 hr 0 min 17 sec) 
Heartbeat CPU 0 instructions: 20000001 cycles: 9659635 heartbeat IPC: 2.07111 cumulative IPC: 2.07047 (Simulation time: 0 hr 0 min 34 sec) 
Heartbeat CPU 0 instructions: 30000002 cycles: 14490252 heartbeat IPC: 2.07013 cumulative IPC: 2.07036 (Simulation time: 0 hr 0 min 50 sec) 
Heartbeat CPU 0 instructions: 40000003 cycles: 19320196 heartbeat IPC: 2.07042 cumulative IPC: 2.07037 (Simulation time: 0 hr 1 min 7 sec) 
Heartbeat CPU 0 instructions: 50000000 cycles: 24151231 heartbeat IPC: 2.06995 cumulative IPC: 2.07029 (Simulation time: 0 hr 1 min 23 sec) 

Warmup complete CPU 0 instructions: 50000004 cycles: 24151232 (Simulation time: 0 hr 1 min 23 sec) 

Heartbeat CPU 0 instructions: 60000000 cycles: 29809077 heartbeat IPC: 1.76746 cumulative IPC: 1.76746 (Simulation time: 0 hr 1 min 39 sec) 
Heartbeat CPU 0 instructions: 70000003 cycles: 34845688 heartbeat IPC: 1.98546 cumulative IPC: 1.87013 (Simulation time: 0 hr 1 min 55 sec) 
Heartbeat CPU 0 instructions: 80000001 cycles: 39888837 heartbeat IPC: 1.98289 cumulative IPC: 1.90626 (Simulation time: 0 hr 2 min 10 sec) 
Heartbeat CPU 0 instructions: 90000000 cycles: 44944129 heartbeat IPC: 1.97812 cumulative IPC: 1.92373 (Simulation time: 0 hr 2 min 26 sec) 
Heartbeat CPU 0 instructions: 100000002 cycles: 49978677 heartbeat IPC: 1.98628 cumulative IPC: 1.93593 (Simulation time: 0 hr 2 min 41 sec) 
Finished CPU 0 instructions: 50000002 cycles: 25827446 cumulative IPC: 1.93593 (Simulation time: 0 hr 2 min 41 sec) 

ChampSim completed all CPUs

Region of Interest Statistics

CPU 0 cumulative IPC: 1.93593 instructions: 50000002 cycles: 25827446
L1D TOTAL     ACCESS:   21134727  HIT:   11728688  MISS:    9406039
L1D LOAD      ACCESS:    8767670  HIT:    3431275  MISS:    5336395
L1D RFO       ACCESS:    5576344  HIT:    5164397  MISS:     411947
L1D PREFETCH  ACCESS:    6790713  HIT:    3133016  MISS:    3657697
L1D WRITEBACK ACCESS:          0  HIT:          0  MISS:          0
L1D PREFETCH  REQUESTED:    8881480  ISSUED:    7075429  USEFUL:      26840  USELESS:    3630901
L1D AVERAGE MISS LATENCY: 22.1368 cycles
L1I TOTAL     ACCESS:    7097881  HIT:    7048224  MISS:      49657
L1I LOAD      ACCESS:    7097881  HIT:    7048224  MISS:      49657
L1I RFO       ACCESS:          0  HIT:          0  MISS:          0
L1I PREFETCH  ACCESS:          0  HIT:          0  MISS:          0
L1I WRITEBACK ACCESS:          0  HIT:          0  MISS:          0
L1I PREFETCH  REQUESTED:          0  ISSUED:          0  USEFUL:          0  USELESS:          0
L1I AVERAGE MISS LATENCY: 15.7036 cycles
L2C TOTAL     ACCESS:   12905578  HIT:   12427029  MISS:     478549
L2C LOAD      ACCESS:    5283126  HIT:    5271329  MISS:      11797
L2C RFO       ACCESS:     409669  HIT:     408507  MISS:       1162
L2C PREFETCH  ACCESS:    6736169  HIT:    6270585  MISS:     465584
L2C WRITEBACK ACCESS:     476614  HIT:     476608  MISS:          6
L2C PREFETCH  REQUESTED:    9817852  ISSUED:    8057410  USEFUL:     461398  USELESS:       4130
L2C AVERAGE MISS LATENCY: 86.2632 cycles
LLC TOTAL     ACCESS:    1502881  HIT:    1124224  MISS:     378657
LLC LOAD      ACCESS:      11694  HIT:       4157  MISS:       7537
LLC RFO       ACCESS:       1159  HIT:         57  MISS:       1102
LLC PREFETCH  ACCESS:    1442735  HIT:    1072768  MISS:     369967
LLC WRITEBACK ACCESS:      47293  HIT:      47242  MISS:         51
LLC PREFETCH  REQUESTED:          0  ISSUED:          0  USEFUL:       2380  USELESS:     360851
LLC AVERAGE MISS LATENCY: 348.813 cycles
Major fault: 0 Minor fault: 8501
CPU 0 L1D next line prefetcher final stats

DRAM Statistics
 CHANNEL 0
 RQ ROW_BUFFER_HIT:     202577  ROW_BUFFER_MISS:     176029
 DBUS_CONGESTED:      81837
 WQ ROW_BUFFER_HIT:      22103  ROW_BUFFER_MISS:      27363  FULL:          0

 AVG_CONGESTED_CYCLE: 5

CPU 0 Branch Prediction Accuracy: 98.9708% MPKI: 0.02072 Average ROB Occupancy at Mispredict: 72.0087

Branch types
NOT_BRANCH: 49899106 99.7982%
BRANCH_DIRECT_JUMP: 16920 0.03384%
BRANCH_INDIRECT: 14629 0.029258%
BRANCH_CONDITIONAL: 57073 0.114146%
BRANCH_DIRECT_CALL: 6013 0.012026%
BRANCH_INDIRECT_CALL: 3 6e-06%
BRANCH_RETURN: 6018 0.012036%
BRANCH_OTHER: 0 0%

