Initialize SIGNATURE TABLE
ST_SET: 1
ST_WAY: 256
ST_TAG_BIT: 16
ST_TAG_MASK: ffff

Initialize PATTERN TABLE
PT_SET: 512
PT_WAY: 4
SIG_DELTA_BIT: 7
C_SIG_BIT: 4
C_DELTA_BIT: 4

Initialize PREFETCH FILTER
FILTER_SET: 1024

*** ChampSim Multicore Out-of-Order Simulator ***

Warmup Instructions: 50000000
Simulation Instructions: 50000000
Number of CPUs: 1
LLC sets: 2048
LLC ways: 16
Off-chip DRAM Size: 4096 MB Channels: 1 Width: 64-bit Data Rate: 3200 MT/s

CPU 0 runs /home/ykhodke/ChampSim/dpc3_traces/620.omnetpp_s-874B.champsimtrace.xz
CPU 0 L1D next line prefetcher
Heartbeat CPU 0 instructions: 10000001 cycles: 5588368 heartbeat IPC: 1.78943 cumulative IPC: 1.78943 (Simulation time: 0 hr 0 min 17 sec) 
Heartbeat CPU 0 instructions: 20000001 cycles: 11176557 heartbeat IPC: 1.78949 cumulative IPC: 1.78946 (Simulation time: 0 hr 0 min 33 sec) 
Heartbeat CPU 0 instructions: 30000002 cycles: 16757405 heartbeat IPC: 1.79184 cumulative IPC: 1.79025 (Simulation time: 0 hr 0 min 49 sec) 
Heartbeat CPU 0 instructions: 40000000 cycles: 22353998 heartbeat IPC: 1.7868 cumulative IPC: 1.78939 (Simulation time: 0 hr 1 min 5 sec) 
Heartbeat CPU 0 instructions: 50000000 cycles: 27943034 heartbeat IPC: 1.78922 cumulative IPC: 1.78935 (Simulation time: 0 hr 1 min 21 sec) 

Warmup complete CPU 0 instructions: 50000001 cycles: 27943035 (Simulation time: 0 hr 1 min 21 sec) 

Heartbeat CPU 0 instructions: 60000001 cycles: 54317545 heartbeat IPC: 0.379154 cumulative IPC: 0.379154 (Simulation time: 0 hr 1 min 41 sec) 
Heartbeat CPU 0 instructions: 70000002 cycles: 80121691 heartbeat IPC: 0.387535 cumulative IPC: 0.383299 (Simulation time: 0 hr 2 min 1 sec) 
Heartbeat CPU 0 instructions: 80000002 cycles: 106362569 heartbeat IPC: 0.381085 cumulative IPC: 0.382558 (Simulation time: 0 hr 2 min 21 sec) 
Heartbeat CPU 0 instructions: 90000003 cycles: 132020910 heartbeat IPC: 0.389737 cumulative IPC: 0.384328 (Simulation time: 0 hr 2 min 40 sec) 
Heartbeat CPU 0 instructions: 100000000 cycles: 158571892 heartbeat IPC: 0.376634 cumulative IPC: 0.382764 (Simulation time: 0 hr 3 min 0 sec) 
Finished CPU 0 instructions: 50000000 cycles: 130628859 cumulative IPC: 0.382764 (Simulation time: 0 hr 3 min 0 sec) 

ChampSim completed all CPUs

Region of Interest Statistics

CPU 0 cumulative IPC: 0.382764 instructions: 50000000 cycles: 130628859
L1D TOTAL     ACCESS:   32215191  HIT:   30753055  MISS:    1462136
L1D LOAD      ACCESS:   11733019  HIT:   11006875  MISS:     726144
L1D RFO       ACCESS:    8993080  HIT:    8923612  MISS:      69468
L1D PREFETCH  ACCESS:   11489092  HIT:   10822568  MISS:     666524
L1D WRITEBACK ACCESS:          0  HIT:          0  MISS:          0
L1D PREFETCH  REQUESTED:   11768998  ISSUED:   11717114  USEFUL:     150610  USELESS:     515914
L1D AVERAGE MISS LATENCY: 116.918 cycles
L1I TOTAL     ACCESS:   11095027  HIT:   11076190  MISS:      18837
L1I LOAD      ACCESS:   11095027  HIT:   11076190  MISS:      18837
L1I RFO       ACCESS:          0  HIT:          0  MISS:          0
L1I PREFETCH  ACCESS:          0  HIT:          0  MISS:          0
L1I WRITEBACK ACCESS:          0  HIT:          0  MISS:          0
L1I PREFETCH  REQUESTED:          0  ISSUED:          0  USEFUL:          0  USELESS:          0
L1I AVERAGE MISS LATENCY: 35.662 cycles
L2C TOTAL     ACCESS:    2150871  HIT:    1188542  MISS:     962329
L2C LOAD      ACCESS:     733493  HIT:     273970  MISS:     459523
L2C RFO       ACCESS:      65017  HIT:      14103  MISS:      50914
L2C PREFETCH  ACCESS:     878588  HIT:     427554  MISS:     451034
L2C WRITEBACK ACCESS:     473773  HIT:     472915  MISS:        858
L2C PREFETCH  REQUESTED:    1437726  ISSUED:    1437726  USEFUL:      29871  USELESS:     421201
L2C AVERAGE MISS LATENCY: 147.935 cycles
LLC TOTAL     ACCESS:    1921938  HIT:     898308  MISS:    1023630
LLC LOAD      ACCESS:     459505  HIT:     159249  MISS:     300256
LLC RFO       ACCESS:      50914  HIT:      18530  MISS:      32384
LLC PREFETCH  ACCESS:    1081107  HIT:     396728  MISS:     684379
LLC WRITEBACK ACCESS:     330412  HIT:     323801  MISS:       6611
LLC PREFETCH  REQUESTED:          0  ISSUED:          0  USEFUL:      80015  USELESS:     603524
LLC AVERAGE MISS LATENCY: 175.521 cycles
Major fault: 0 Minor fault: 46163
CPU 0 L1D next line prefetcher final stats

DRAM Statistics
 CHANNEL 0
 RQ ROW_BUFFER_HIT:     103027  ROW_BUFFER_MISS:     913986
 DBUS_CONGESTED:     554718
 WQ ROW_BUFFER_HIT:      35085  ROW_BUFFER_MISS:     221203  FULL:          0

 AVG_CONGESTED_CYCLE: 4

CPU 0 Branch Prediction Accuracy: 98.2025% MPKI: 3.73946 Average ROB Occupancy at Mispredict: 94.1601

Branch types
NOT_BRANCH: 39597984 79.196%
BRANCH_DIRECT_JUMP: 567491 1.13498%
BRANCH_INDIRECT: 167850 0.3357%
BRANCH_CONDITIONAL: 6697264 13.3945%
BRANCH_DIRECT_CALL: 888054 1.77611%
BRANCH_INDIRECT_CALL: 596602 1.1932%
BRANCH_RETURN: 1484650 2.9693%
BRANCH_OTHER: 0 0%

