Initialize SIGNATURE TABLE
ST_SET: 1
ST_WAY: 256
ST_TAG_BIT: 16
ST_TAG_MASK: ffff

Initialize PATTERN TABLE
PT_SET: 512
PT_WAY: 4
SIG_DELTA_BIT: 7
C_SIG_BIT: 4
C_DELTA_BIT: 4

Initialize PREFETCH FILTER
FILTER_SET: 1024

*** ChampSim Multicore Out-of-Order Simulator ***

Warmup Instructions: 50000000
Simulation Instructions: 50000000
Number of CPUs: 1
LLC sets: 2048
LLC ways: 16
Off-chip DRAM Size: 4096 MB Channels: 1 Width: 64-bit Data Rate: 3200 MT/s

CPU 0 runs /home/ykhodke/ChampSim/dpc3_traces/621.wrf_s-575B.champsimtrace.xz
CPU 0 L1D next line prefetcher
Heartbeat CPU 0 instructions: 10000000 cycles: 4328661 heartbeat IPC: 2.31018 cumulative IPC: 2.31018 (Simulation time: 0 hr 0 min 12 sec) 
Heartbeat CPU 0 instructions: 20000002 cycles: 8673308 heartbeat IPC: 2.30168 cumulative IPC: 2.30593 (Simulation time: 0 hr 0 min 23 sec) 
Heartbeat CPU 0 instructions: 30000000 cycles: 13029330 heartbeat IPC: 2.29567 cumulative IPC: 2.3025 (Simulation time: 0 hr 0 min 35 sec) 
Heartbeat CPU 0 instructions: 40000002 cycles: 17381174 heartbeat IPC: 2.29788 cumulative IPC: 2.30134 (Simulation time: 0 hr 0 min 47 sec) 
Heartbeat CPU 0 instructions: 50000002 cycles: 21730888 heartbeat IPC: 2.299 cumulative IPC: 2.30087 (Simulation time: 0 hr 0 min 59 sec) 

Warmup complete CPU 0 instructions: 50000002 cycles: 21730888 (Simulation time: 0 hr 0 min 59 sec) 

Heartbeat CPU 0 instructions: 60000003 cycles: 30397763 heartbeat IPC: 1.15382 cumulative IPC: 1.15382 (Simulation time: 0 hr 1 min 12 sec) 
Heartbeat CPU 0 instructions: 70000000 cycles: 39038328 heartbeat IPC: 1.15733 cumulative IPC: 1.15557 (Simulation time: 0 hr 1 min 25 sec) 
Heartbeat CPU 0 instructions: 80000000 cycles: 47625479 heartbeat IPC: 1.16453 cumulative IPC: 1.15854 (Simulation time: 0 hr 1 min 38 sec) 
Heartbeat CPU 0 instructions: 90000000 cycles: 56268546 heartbeat IPC: 1.157 cumulative IPC: 1.15816 (Simulation time: 0 hr 1 min 51 sec) 
Heartbeat CPU 0 instructions: 100000001 cycles: 64878925 heartbeat IPC: 1.16139 cumulative IPC: 1.1588 (Simulation time: 0 hr 2 min 4 sec) 
Finished CPU 0 instructions: 50000000 cycles: 43148044 cumulative IPC: 1.1588 (Simulation time: 0 hr 2 min 4 sec) 

ChampSim completed all CPUs

Region of Interest Statistics

CPU 0 cumulative IPC: 1.1588 instructions: 50000000 cycles: 43148044
L1D TOTAL     ACCESS:   15293693  HIT:   15292144  MISS:       1549
L1D LOAD      ACCESS:    6687112  HIT:    6686824  MISS:        288
L1D RFO       ACCESS:    1925598  HIT:    1924843  MISS:        755
L1D PREFETCH  ACCESS:    6680983  HIT:    6680477  MISS:        506
L1D WRITEBACK ACCESS:          0  HIT:          0  MISS:          0
L1D PREFETCH  REQUESTED:    6687186  ISSUED:    6682391  USEFUL:        423  USELESS:         80
L1D AVERAGE MISS LATENCY: 133.397 cycles
L1I TOTAL     ACCESS:   10572256  HIT:   10571872  MISS:        384
L1I LOAD      ACCESS:   10572256  HIT:   10571872  MISS:        384
L1I RFO       ACCESS:          0  HIT:          0  MISS:          0
L1I PREFETCH  ACCESS:          0  HIT:          0  MISS:          0
L1I WRITEBACK ACCESS:          0  HIT:          0  MISS:          0
L1I PREFETCH  REQUESTED:          0  ISSUED:          0  USEFUL:          0  USELESS:          0
L1I AVERAGE MISS LATENCY: 15.2812 cycles
L2C TOTAL     ACCESS:       3521  HIT:       2053  MISS:       1468
L2C LOAD      ACCESS:        587  HIT:        426  MISS:        161
L2C RFO       ACCESS:        755  HIT:         25  MISS:        730
L2C PREFETCH  ACCESS:       1131  HIT:        554  MISS:        577
L2C WRITEBACK ACCESS:       1048  HIT:       1048  MISS:          0
L2C PREFETCH  REQUESTED:       2963  ISSUED:       2963  USEFUL:         23  USELESS:          0
L2C AVERAGE MISS LATENCY: 137.853 cycles
LLC TOTAL     ACCESS:       3186  HIT:       1600  MISS:       1586
LLC LOAD      ACCESS:        161  HIT:         46  MISS:        115
LLC RFO       ACCESS:        730  HIT:         18  MISS:        712
LLC PREFETCH  ACCESS:       2295  HIT:       1536  MISS:        759
LLC WRITEBACK ACCESS:          0  HIT:          0  MISS:          0
LLC PREFETCH  REQUESTED:          0  ISSUED:          0  USEFUL:         64  USELESS:          0
LLC AVERAGE MISS LATENCY: 154.941 cycles
Major fault: 0 Minor fault: 197
CPU 0 L1D next line prefetcher final stats

DRAM Statistics
 CHANNEL 0
 RQ ROW_BUFFER_HIT:        477  ROW_BUFFER_MISS:       1109
 DBUS_CONGESTED:        594
 WQ ROW_BUFFER_HIT:          0  ROW_BUFFER_MISS:          0  FULL:          0

 AVG_CONGESTED_CYCLE: 6

CPU 0 Branch Prediction Accuracy: 99.6866% MPKI: 0.41812 Average ROB Occupancy at Mispredict: 263.263

Branch types
NOT_BRANCH: 43328386 86.6568%
BRANCH_DIRECT_JUMP: 484649 0.969298%
BRANCH_INDIRECT: 0 0%
BRANCH_CONDITIONAL: 5043854 10.0877%
BRANCH_DIRECT_CALL: 571556 1.14311%
BRANCH_INDIRECT_CALL: 0 0%
BRANCH_RETURN: 571556 1.14311%
BRANCH_OTHER: 0 0%

