Initialize SIGNATURE TABLE
ST_SET: 1
ST_WAY: 256
ST_TAG_BIT: 16
ST_TAG_MASK: ffff

Initialize PATTERN TABLE
PT_SET: 512
PT_WAY: 4
SIG_DELTA_BIT: 7
C_SIG_BIT: 4
C_DELTA_BIT: 4

Initialize PREFETCH FILTER
FILTER_SET: 1024

*** ChampSim Multicore Out-of-Order Simulator ***

Warmup Instructions: 50000000
Simulation Instructions: 50000000
Number of CPUs: 1
LLC sets: 2048
LLC ways: 16
Off-chip DRAM Size: 4096 MB Channels: 1 Width: 64-bit Data Rate: 3200 MT/s

CPU 0 runs /home/ykhodke/ChampSim/dpc3_traces/628.pop2_s-17B.champsimtrace.xz
CPU 0 L1D next line prefetcher
Heartbeat CPU 0 instructions: 10000003 cycles: 3395748 heartbeat IPC: 2.94486 cumulative IPC: 2.94486 (Simulation time: 0 hr 0 min 11 sec) 
Heartbeat CPU 0 instructions: 20000001 cycles: 6791246 heartbeat IPC: 2.94508 cumulative IPC: 2.94497 (Simulation time: 0 hr 0 min 22 sec) 
Heartbeat CPU 0 instructions: 30000003 cycles: 10185210 heartbeat IPC: 2.94641 cumulative IPC: 2.94545 (Simulation time: 0 hr 0 min 32 sec) 
Heartbeat CPU 0 instructions: 40000001 cycles: 13576878 heartbeat IPC: 2.9484 cumulative IPC: 2.94619 (Simulation time: 0 hr 0 min 43 sec) 
Heartbeat CPU 0 instructions: 50000002 cycles: 16961397 heartbeat IPC: 2.95463 cumulative IPC: 2.94787 (Simulation time: 0 hr 0 min 53 sec) 

Warmup complete CPU 0 instructions: 50000002 cycles: 16961397 (Simulation time: 0 hr 0 min 53 sec) 

Heartbeat CPU 0 instructions: 60000001 cycles: 23406330 heartbeat IPC: 1.55161 cumulative IPC: 1.55161 (Simulation time: 0 hr 1 min 2 sec) 
Heartbeat CPU 0 instructions: 70000002 cycles: 29792373 heartbeat IPC: 1.56592 cumulative IPC: 1.55873 (Simulation time: 0 hr 1 min 11 sec) 
Heartbeat CPU 0 instructions: 80000000 cycles: 36296392 heartbeat IPC: 1.53751 cumulative IPC: 1.55159 (Simulation time: 0 hr 1 min 20 sec) 
Heartbeat CPU 0 instructions: 90000003 cycles: 43835362 heartbeat IPC: 1.32644 cumulative IPC: 1.48843 (Simulation time: 0 hr 1 min 28 sec) 
Heartbeat CPU 0 instructions: 100000001 cycles: 50359488 heartbeat IPC: 1.53277 cumulative IPC: 1.49709 (Simulation time: 0 hr 1 min 38 sec) 
Finished CPU 0 instructions: 50000003 cycles: 33398092 cumulative IPC: 1.49709 (Simulation time: 0 hr 1 min 38 sec) 

ChampSim completed all CPUs

Region of Interest Statistics

CPU 0 cumulative IPC: 1.49709 instructions: 50000003 cycles: 33398092
L1D TOTAL     ACCESS:   17250509  HIT:   16391544  MISS:     858965
L1D LOAD      ACCESS:    7559557  HIT:    7397761  MISS:     161796
L1D RFO       ACCESS:    2968561  HIT:    2679813  MISS:     288748
L1D PREFETCH  ACCESS:    6722391  HIT:    6313970  MISS:     408421
L1D WRITEBACK ACCESS:          0  HIT:          0  MISS:          0
L1D PREFETCH  REQUESTED:    7664472  ISSUED:    7329187  USEFUL:     365741  USELESS:      42704
L1D AVERAGE MISS LATENCY: 32.6233 cycles
L1I TOTAL     ACCESS:    9096505  HIT:    9071707  MISS:      24798
L1I LOAD      ACCESS:    9096505  HIT:    9071707  MISS:      24798
L1I RFO       ACCESS:          0  HIT:          0  MISS:          0
L1I PREFETCH  ACCESS:          0  HIT:          0  MISS:          0
L1I WRITEBACK ACCESS:          0  HIT:          0  MISS:          0
L1I PREFETCH  REQUESTED:          0  ISSUED:          0  USEFUL:          0  USELESS:          0
L1I AVERAGE MISS LATENCY: 40.4508 cycles
L2C TOTAL     ACCESS:    2175802  HIT:    1854008  MISS:     321794
L2C LOAD      ACCESS:      97832  HIT:      52835  MISS:      44997
L2C RFO       ACCESS:     288723  HIT:     207134  MISS:      81589
L2C PREFETCH  ACCESS:    1408210  HIT:    1213395  MISS:     194815
L2C WRITEBACK ACCESS:     381037  HIT:     380644  MISS:        393
L2C PREFETCH  REQUESTED:    1816637  ISSUED:    1740121  USEFUL:      12623  USELESS:     180414
L2C AVERAGE MISS LATENCY: 75.5881 cycles
LLC TOTAL     ACCESS:     945660  HIT:     774283  MISS:     171377
LLC LOAD      ACCESS:      43448  HIT:      36742  MISS:       6706
LLC RFO       ACCESS:      81589  HIT:      39325  MISS:      42264
LLC PREFETCH  ACCESS:     685847  HIT:     565593  MISS:     120254
LLC WRITEBACK ACCESS:     134776  HIT:     132623  MISS:       2153
LLC PREFETCH  REQUESTED:          0  ISSUED:          0  USEFUL:       6383  USELESS:     124203
LLC AVERAGE MISS LATENCY: 171.381 cycles
Major fault: 0 Minor fault: 5186
CPU 0 L1D next line prefetcher final stats

DRAM Statistics
 CHANNEL 0
 RQ ROW_BUFFER_HIT:      69845  ROW_BUFFER_MISS:      99353
 DBUS_CONGESTED:      92653
 WQ ROW_BUFFER_HIT:      19225  ROW_BUFFER_MISS:      41255  FULL:          0

 AVG_CONGESTED_CYCLE: 6

CPU 0 Branch Prediction Accuracy: 99.1448% MPKI: 1.03648 Average ROB Occupancy at Mispredict: 34.5735

Branch types
NOT_BRANCH: 43939618 87.8792%
BRANCH_DIRECT_JUMP: 214980 0.42996%
BRANCH_INDIRECT: 2007 0.004014%
BRANCH_CONDITIONAL: 5640873 11.2817%
BRANCH_DIRECT_CALL: 101143 0.202286%
BRANCH_INDIRECT_CALL: 0 0%
BRANCH_RETURN: 101145 0.20229%
BRANCH_OTHER: 0 0%

