Initialize SIGNATURE TABLE
ST_SET: 1
ST_WAY: 256
ST_TAG_BIT: 16
ST_TAG_MASK: ffff

Initialize PATTERN TABLE
PT_SET: 512
PT_WAY: 4
SIG_DELTA_BIT: 7
C_SIG_BIT: 4
C_DELTA_BIT: 4

Initialize PREFETCH FILTER
FILTER_SET: 1024

*** ChampSim Multicore Out-of-Order Simulator ***

Warmup Instructions: 50000000
Simulation Instructions: 50000000
Number of CPUs: 1
LLC sets: 2048
LLC ways: 16
Off-chip DRAM Size: 4096 MB Channels: 1 Width: 64-bit Data Rate: 3200 MT/s

CPU 0 runs /home/ykhodke/ChampSim/dpc3_traces/641.leela_s-800B.champsimtrace.xz
CPU 0 L1D next line prefetcher
Heartbeat CPU 0 instructions: 10000003 cycles: 4646118 heartbeat IPC: 2.15234 cumulative IPC: 2.15234 (Simulation time: 0 hr 0 min 14 sec) 
Heartbeat CPU 0 instructions: 20000003 cycles: 9289257 heartbeat IPC: 2.15372 cumulative IPC: 2.15303 (Simulation time: 0 hr 0 min 27 sec) 
Heartbeat CPU 0 instructions: 30000001 cycles: 13951241 heartbeat IPC: 2.14501 cumulative IPC: 2.15035 (Simulation time: 0 hr 0 min 41 sec) 
Heartbeat CPU 0 instructions: 40000002 cycles: 18599697 heartbeat IPC: 2.15125 cumulative IPC: 2.15057 (Simulation time: 0 hr 0 min 54 sec) 
Heartbeat CPU 0 instructions: 50000001 cycles: 23243238 heartbeat IPC: 2.15353 cumulative IPC: 2.15116 (Simulation time: 0 hr 1 min 8 sec) 

Warmup complete CPU 0 instructions: 50000001 cycles: 23243238 (Simulation time: 0 hr 1 min 8 sec) 

Heartbeat CPU 0 instructions: 60000000 cycles: 34796465 heartbeat IPC: 0.865559 cumulative IPC: 0.865559 (Simulation time: 0 hr 1 min 19 sec) 
Heartbeat CPU 0 instructions: 70000001 cycles: 46322835 heartbeat IPC: 0.867576 cumulative IPC: 0.866566 (Simulation time: 0 hr 1 min 30 sec) 
Heartbeat CPU 0 instructions: 80000001 cycles: 57839962 heartbeat IPC: 0.868272 cumulative IPC: 0.867134 (Simulation time: 0 hr 1 min 41 sec) 
Heartbeat CPU 0 instructions: 90000003 cycles: 69306128 heartbeat IPC: 0.872131 cumulative IPC: 0.868378 (Simulation time: 0 hr 1 min 52 sec) 
Heartbeat CPU 0 instructions: 100000002 cycles: 80779920 heartbeat IPC: 0.871551 cumulative IPC: 0.869011 (Simulation time: 0 hr 2 min 2 sec) 
Finished CPU 0 instructions: 50000001 cycles: 57536682 cumulative IPC: 0.869011 (Simulation time: 0 hr 2 min 2 sec) 

ChampSim completed all CPUs

Region of Interest Statistics

CPU 0 cumulative IPC: 0.869011 instructions: 50000001 cycles: 57536682
L1D TOTAL     ACCESS:   25021735  HIT:   24869431  MISS:     152304
L1D LOAD      ACCESS:    9726780  HIT:    9637473  MISS:      89307
L1D RFO       ACCESS:    5717221  HIT:    5708115  MISS:       9106
L1D PREFETCH  ACCESS:    9577734  HIT:    9523843  MISS:      53891
L1D WRITEBACK ACCESS:          0  HIT:          0  MISS:          0
L1D PREFETCH  REQUESTED:    9730509  ISSUED:    9604042  USEFUL:      17617  USELESS:      36223
L1D AVERAGE MISS LATENCY: 15.761 cycles
L1I TOTAL     ACCESS:    8977173  HIT:    8974468  MISS:       2705
L1I LOAD      ACCESS:    8977173  HIT:    8974468  MISS:       2705
L1I RFO       ACCESS:          0  HIT:          0  MISS:          0
L1I PREFETCH  ACCESS:          0  HIT:          0  MISS:          0
L1I WRITEBACK ACCESS:          0  HIT:          0  MISS:          0
L1I PREFETCH  REQUESTED:          0  ISSUED:          0  USEFUL:          0  USELESS:          0
L1I AVERAGE MISS LATENCY: 17.3331 cycles
L2C TOTAL     ACCESS:     288753  HIT:     287040  MISS:       1713
L2C LOAD      ACCESS:      91649  HIT:      90911  MISS:        738
L2C RFO       ACCESS:       9005  HIT:       8964  MISS:         41
L2C PREFETCH  ACCESS:     168280  HIT:     167346  MISS:        934
L2C WRITEBACK ACCESS:      19819  HIT:      19819  MISS:          0
L2C PREFETCH  REQUESTED:     179231  ISSUED:     179089  USEFUL:        493  USELESS:        350
L2C AVERAGE MISS LATENCY: 79.9539 cycles
LLC TOTAL     ACCESS:      31189  HIT:      29859  MISS:       1330
LLC LOAD      ACCESS:        713  HIT:        479  MISS:        234
LLC RFO       ACCESS:         41  HIT:          4  MISS:         37
LLC PREFETCH  ACCESS:      30311  HIT:      29252  MISS:       1059
LLC WRITEBACK ACCESS:        124  HIT:        124  MISS:          0
LLC PREFETCH  REQUESTED:          0  ISSUED:          0  USEFUL:        129  USELESS:          0
LLC AVERAGE MISS LATENCY: 153.562 cycles
Major fault: 0 Minor fault: 491
CPU 0 L1D next line prefetcher final stats

DRAM Statistics
 CHANNEL 0
 RQ ROW_BUFFER_HIT:        287  ROW_BUFFER_MISS:       1043
 DBUS_CONGESTED:        364
 WQ ROW_BUFFER_HIT:          0  ROW_BUFFER_MISS:          0  FULL:          0

 AVG_CONGESTED_CYCLE: 4

CPU 0 Branch Prediction Accuracy: 93.0243% MPKI: 11.3959 Average ROB Occupancy at Mispredict: 42.4434

Branch types
NOT_BRANCH: 41831381 83.6628%
BRANCH_DIRECT_JUMP: 271721 0.543442%
BRANCH_INDIRECT: 310 0.00062%
BRANCH_CONDITIONAL: 4950159 9.90032%
BRANCH_DIRECT_CALL: 1473055 2.94611%
BRANCH_INDIRECT_CALL: 0 0%
BRANCH_RETURN: 1473053 2.94611%
BRANCH_OTHER: 0 0%

