Initialize SIGNATURE TABLE
ST_SET: 1
ST_WAY: 256
ST_TAG_BIT: 16
ST_TAG_MASK: ffff

Initialize PATTERN TABLE
PT_SET: 512
PT_WAY: 4
SIG_DELTA_BIT: 7
C_SIG_BIT: 4
C_DELTA_BIT: 4

Initialize PREFETCH FILTER
FILTER_SET: 1024

*** ChampSim Multicore Out-of-Order Simulator ***

Warmup Instructions: 50000000
Simulation Instructions: 50000000
Number of CPUs: 1
LLC sets: 2048
LLC ways: 16
Off-chip DRAM Size: 4096 MB Channels: 1 Width: 64-bit Data Rate: 3200 MT/s

CPU 0 runs /home/ykhodke/ChampSim/dpc3_traces/654.roms_s-842B.champsimtrace.xz
CPU 0 L1D next line prefetcher
Heartbeat CPU 0 instructions: 10000000 cycles: 2986201 heartbeat IPC: 3.34874 cumulative IPC: 3.34874 (Simulation time: 0 hr 0 min 11 sec) 
Heartbeat CPU 0 instructions: 20000003 cycles: 6015366 heartbeat IPC: 3.30124 cumulative IPC: 3.32482 (Simulation time: 0 hr 0 min 22 sec) 
Heartbeat CPU 0 instructions: 30000000 cycles: 8979329 heartbeat IPC: 3.37386 cumulative IPC: 3.34101 (Simulation time: 0 hr 0 min 33 sec) 
Heartbeat CPU 0 instructions: 40000000 cycles: 12016618 heartbeat IPC: 3.29241 cumulative IPC: 3.32872 (Simulation time: 0 hr 0 min 45 sec) 
Heartbeat CPU 0 instructions: 50000003 cycles: 15217510 heartbeat IPC: 3.12413 cumulative IPC: 3.28569 (Simulation time: 0 hr 0 min 56 sec) 

Warmup complete CPU 0 instructions: 50000003 cycles: 15217510 (Simulation time: 0 hr 0 min 56 sec) 

Heartbeat CPU 0 instructions: 60000000 cycles: 20884110 heartbeat IPC: 1.76473 cumulative IPC: 1.76473 (Simulation time: 0 hr 1 min 6 sec) 
Heartbeat CPU 0 instructions: 70000001 cycles: 26527439 heartbeat IPC: 1.772 cumulative IPC: 1.76836 (Simulation time: 0 hr 1 min 16 sec) 
Heartbeat CPU 0 instructions: 80000001 cycles: 32191820 heartbeat IPC: 1.76542 cumulative IPC: 1.76738 (Simulation time: 0 hr 1 min 27 sec) 
Heartbeat CPU 0 instructions: 90000000 cycles: 37881836 heartbeat IPC: 1.75746 cumulative IPC: 1.76489 (Simulation time: 0 hr 1 min 37 sec) 
Heartbeat CPU 0 instructions: 100000002 cycles: 43481991 heartbeat IPC: 1.78567 cumulative IPC: 1.769 (Simulation time: 0 hr 1 min 47 sec) 
Finished CPU 0 instructions: 50000000 cycles: 28264489 cumulative IPC: 1.769 (Simulation time: 0 hr 1 min 47 sec) 

ChampSim completed all CPUs

Region of Interest Statistics

CPU 0 cumulative IPC: 1.769 instructions: 50000000 cycles: 28264489
L1D TOTAL     ACCESS:   13245990  HIT:   13239063  MISS:       6927
L1D LOAD      ACCESS:    4790205  HIT:    4790024  MISS:        181
L1D RFO       ACCESS:    3672892  HIT:    3670127  MISS:       2765
L1D PREFETCH  ACCESS:    4782893  HIT:    4778912  MISS:       3981
L1D WRITEBACK ACCESS:          0  HIT:          0  MISS:          0
L1D PREFETCH  REQUESTED:    4790529  ISSUED:    4788766  USEFUL:       3849  USELESS:        110
L1D AVERAGE MISS LATENCY: 64.0042 cycles
L1I TOTAL     ACCESS:    8612539  HIT:    8612539  MISS:          0
L1I LOAD      ACCESS:    8612539  HIT:    8612539  MISS:          0
L1I RFO       ACCESS:          0  HIT:          0  MISS:          0
L1I PREFETCH  ACCESS:          0  HIT:          0  MISS:          0
L1I WRITEBACK ACCESS:          0  HIT:          0  MISS:          0
L1I PREFETCH  REQUESTED:          0  ISSUED:          0  USEFUL:          0  USELESS:          0
L1I AVERAGE MISS LATENCY: -nan cycles
L2C TOTAL     ACCESS:      12613  HIT:       5910  MISS:       6703
L2C LOAD      ACCESS:        168  HIT:         44  MISS:        124
L2C RFO       ACCESS:       2765  HIT:        124  MISS:       2641
L2C PREFETCH  ACCESS:       6905  HIT:       2967  MISS:       3938
L2C WRITEBACK ACCESS:       2775  HIT:       2775  MISS:          0
L2C PREFETCH  REQUESTED:      34124  ISSUED:      34097  USEFUL:          0  USELESS:       3088
L2C AVERAGE MISS LATENCY: 64.4244 cycles
LLC TOTAL     ACCESS:      39550  HIT:      32506  MISS:       7044
LLC LOAD      ACCESS:        124  HIT:          0  MISS:        124
LLC RFO       ACCESS:       2641  HIT:         16  MISS:       2625
LLC PREFETCH  ACCESS:      34164  HIT:      29869  MISS:       4295
LLC WRITEBACK ACCESS:       2621  HIT:       2621  MISS:          0
LLC PREFETCH  REQUESTED:          0  ISSUED:          0  USEFUL:          1  USELESS:          0
LLC AVERAGE MISS LATENCY: 82.1164 cycles
Major fault: 0 Minor fault: 437
CPU 0 L1D next line prefetcher final stats

DRAM Statistics
 CHANNEL 0
 RQ ROW_BUFFER_HIT:       6692  ROW_BUFFER_MISS:        352
 DBUS_CONGESTED:       1912
 WQ ROW_BUFFER_HIT:          0  ROW_BUFFER_MISS:          0  FULL:          0

 AVG_CONGESTED_CYCLE: 6

CPU 0 Branch Prediction Accuracy: 99.9355% MPKI: 0.10634 Average ROB Occupancy at Mispredict: 33.7147

Branch types
NOT_BRANCH: 41749893 83.4998%
BRANCH_DIRECT_JUMP: 819653 1.63931%
BRANCH_INDIRECT: 31348 0.062696%
BRANCH_CONDITIONAL: 6715519 13.431%
BRANCH_DIRECT_CALL: 341636 0.683272%
BRANCH_INDIRECT_CALL: 0 0%
BRANCH_RETURN: 341632 0.683264%
BRANCH_OTHER: 0 0%

