Initialize SIGNATURE TABLE
ST_SET: 1
ST_WAY: 256
ST_TAG_BIT: 16
ST_TAG_MASK: ffff

Initialize PATTERN TABLE
PT_SET: 512
PT_WAY: 4
SIG_DELTA_BIT: 7
C_SIG_BIT: 4
C_DELTA_BIT: 4

Initialize PREFETCH FILTER
FILTER_SET: 1024

*** ChampSim Multicore Out-of-Order Simulator ***

Warmup Instructions: 50000000
Simulation Instructions: 50000000
Number of CPUs: 1
LLC sets: 2048
LLC ways: 16
Off-chip DRAM Size: 4096 MB Channels: 1 Width: 64-bit Data Rate: 3200 MT/s

CPU 0 runs /home/ykhodke/ChampSim/dpc3_traces/657.xz_s-3167B.champsimtrace.xz
CPU 0 L1D next line prefetcher
Heartbeat CPU 0 instructions: 10000000 cycles: 3240350 heartbeat IPC: 3.08609 cumulative IPC: 3.08609 (Simulation time: 0 hr 0 min 12 sec) 
Heartbeat CPU 0 instructions: 20000003 cycles: 6520155 heartbeat IPC: 3.04896 cumulative IPC: 3.06741 (Simulation time: 0 hr 0 min 24 sec) 
Heartbeat CPU 0 instructions: 30000001 cycles: 9792152 heartbeat IPC: 3.05624 cumulative IPC: 3.06368 (Simulation time: 0 hr 0 min 36 sec) 
Heartbeat CPU 0 instructions: 40000000 cycles: 13042067 heartbeat IPC: 3.077 cumulative IPC: 3.067 (Simulation time: 0 hr 0 min 48 sec) 
Heartbeat CPU 0 instructions: 50000001 cycles: 16293750 heartbeat IPC: 3.07533 cumulative IPC: 3.06866 (Simulation time: 0 hr 1 min 1 sec) 

Warmup complete CPU 0 instructions: 50000001 cycles: 16293750 (Simulation time: 0 hr 1 min 1 sec) 

Heartbeat CPU 0 instructions: 60000001 cycles: 25507222 heartbeat IPC: 1.08537 cumulative IPC: 1.08537 (Simulation time: 0 hr 1 min 9 sec) 
Heartbeat CPU 0 instructions: 70000001 cycles: 34170483 heartbeat IPC: 1.1543 cumulative IPC: 1.11877 (Simulation time: 0 hr 1 min 18 sec) 
Heartbeat CPU 0 instructions: 80000002 cycles: 43079277 heartbeat IPC: 1.12249 cumulative IPC: 1.12001 (Simulation time: 0 hr 1 min 26 sec) 
Heartbeat CPU 0 instructions: 90000001 cycles: 51037464 heartbeat IPC: 1.25657 cumulative IPC: 1.15129 (Simulation time: 0 hr 1 min 35 sec) 
Heartbeat CPU 0 instructions: 100000001 cycles: 59783523 heartbeat IPC: 1.14337 cumulative IPC: 1.1497 (Simulation time: 0 hr 1 min 44 sec) 
Finished CPU 0 instructions: 50000000 cycles: 43489773 cumulative IPC: 1.1497 (Simulation time: 0 hr 1 min 44 sec) 

ChampSim completed all CPUs

Region of Interest Statistics

CPU 0 cumulative IPC: 1.1497 instructions: 50000000 cycles: 43489773
L1D TOTAL     ACCESS:   18388196  HIT:   17935027  MISS:     453169
L1D LOAD      ACCESS:    7571991  HIT:    7388412  MISS:     183579
L1D RFO       ACCESS:    3349845  HIT:    3284714  MISS:      65131
L1D PREFETCH  ACCESS:    7466360  HIT:    7261901  MISS:     204459
L1D WRITEBACK ACCESS:          0  HIT:          0  MISS:          0
L1D PREFETCH  REQUESTED:    7591943  ISSUED:    7518330  USEFUL:      37539  USELESS:     166904
L1D AVERAGE MISS LATENCY: 56.456 cycles
L1I TOTAL     ACCESS:    8298686  HIT:    8298508  MISS:        178
L1I LOAD      ACCESS:    8298686  HIT:    8298508  MISS:        178
L1I RFO       ACCESS:          0  HIT:          0  MISS:          0
L1I PREFETCH  ACCESS:          0  HIT:          0  MISS:          0
L1I WRITEBACK ACCESS:          0  HIT:          0  MISS:          0
L1I PREFETCH  REQUESTED:          0  ISSUED:          0  USEFUL:          0  USELESS:          0
L1I AVERAGE MISS LATENCY: 51.2584 cycles
L2C TOTAL     ACCESS:     757522  HIT:     620361  MISS:     137161
L2C LOAD      ACCESS:     182728  HIT:     126968  MISS:      55760
L2C RFO       ACCESS:      64968  HIT:      47776  MISS:      17192
L2C PREFETCH  ACCESS:     302768  HIT:     238742  MISS:      64026
L2C WRITEBACK ACCESS:     207058  HIT:     206875  MISS:        183
L2C PREFETCH  REQUESTED:     336636  ISSUED:     336636  USEFUL:       5253  USELESS:      58880
L2C AVERAGE MISS LATENCY: 131.801 cycles
LLC TOTAL     ACCESS:     279239  HIT:     175977  MISS:     103262
LLC LOAD      ACCESS:      55760  HIT:      24937  MISS:      30823
LLC RFO       ACCESS:      17192  HIT:       2347  MISS:      14845
LLC PREFETCH  ACCESS:     145995  HIT:      89591  MISS:      56404
LLC WRITEBACK ACCESS:      60292  HIT:      59102  MISS:       1190
LLC PREFETCH  REQUESTED:          0  ISSUED:          0  USEFUL:       4823  USELESS:      51832
LLC AVERAGE MISS LATENCY: 177.831 cycles
Major fault: 0 Minor fault: 6977
CPU 0 L1D next line prefetcher final stats

DRAM Statistics
 CHANNEL 0
 RQ ROW_BUFFER_HIT:       5175  ROW_BUFFER_MISS:      96897
 DBUS_CONGESTED:      47875
 WQ ROW_BUFFER_HIT:       3490  ROW_BUFFER_MISS:      38874  FULL:          0

 AVG_CONGESTED_CYCLE: 4

CPU 0 Branch Prediction Accuracy: 96.6222% MPKI: 5.02184 Average ROB Occupancy at Mispredict: 27.9969

Branch types
NOT_BRANCH: 42566067 85.1321%
BRANCH_DIRECT_JUMP: 361705 0.72341%
BRANCH_INDIRECT: 89401 0.178802%
BRANCH_CONDITIONAL: 6903804 13.8076%
BRANCH_DIRECT_CALL: 26281 0.052562%
BRANCH_INDIRECT_CALL: 13065 0.02613%
BRANCH_RETURN: 39345 0.07869%
BRANCH_OTHER: 0 0%

