Initialize SIGNATURE TABLE
ST_SET: 1
ST_WAY: 256
ST_TAG_BIT: 16
ST_TAG_MASK: ffff

Initialize PATTERN TABLE
PT_SET: 512
PT_WAY: 4
SIG_DELTA_BIT: 7
C_SIG_BIT: 4
C_DELTA_BIT: 4

Initialize PREFETCH FILTER
FILTER_SET: 1024

*** ChampSim Multicore Out-of-Order Simulator ***

Warmup Instructions: 50000000
Simulation Instructions: 50000000
Number of CPUs: 1
LLC sets: 2048
LLC ways: 16
Off-chip DRAM Size: 4096 MB Channels: 1 Width: 64-bit Data Rate: 3200 MT/s

CPU 0 runs /home/ykhodke/ChampSim/dpc3_traces/client_008.champsimtrace.xz
CPU 0 L1D next line prefetcher
Heartbeat CPU 0 instructions: 10000001 cycles: 3753881 heartbeat IPC: 2.66391 cumulative IPC: 2.66391 (Simulation time: 0 hr 0 min 14 sec) 
Heartbeat CPU 0 instructions: 20000001 cycles: 7529334 heartbeat IPC: 2.64869 cumulative IPC: 2.65628 (Simulation time: 0 hr 0 min 28 sec) 
Heartbeat CPU 0 instructions: 30000000 cycles: 11256189 heartbeat IPC: 2.68323 cumulative IPC: 2.6652 (Simulation time: 0 hr 0 min 43 sec) 
Heartbeat CPU 0 instructions: 40000002 cycles: 15049736 heartbeat IPC: 2.63606 cumulative IPC: 2.65785 (Simulation time: 0 hr 0 min 57 sec) 
Heartbeat CPU 0 instructions: 50000003 cycles: 18840558 heartbeat IPC: 2.63795 cumulative IPC: 2.65385 (Simulation time: 0 hr 1 min 12 sec) 

Warmup complete CPU 0 instructions: 50000003 cycles: 18840558 (Simulation time: 0 hr 1 min 12 sec) 

Heartbeat CPU 0 instructions: 60000000 cycles: 28183202 heartbeat IPC: 1.07036 cumulative IPC: 1.07036 (Simulation time: 0 hr 1 min 26 sec) 
Heartbeat CPU 0 instructions: 70000000 cycles: 37229278 heartbeat IPC: 1.10545 cumulative IPC: 1.08762 (Simulation time: 0 hr 1 min 41 sec) 
Heartbeat CPU 0 instructions: 80000001 cycles: 46426326 heartbeat IPC: 1.08731 cumulative IPC: 1.08752 (Simulation time: 0 hr 1 min 54 sec) 
Heartbeat CPU 0 instructions: 90000001 cycles: 53798970 heartbeat IPC: 1.35637 cumulative IPC: 1.14422 (Simulation time: 0 hr 2 min 7 sec) 
Heartbeat CPU 0 instructions: 100000001 cycles: 61844510 heartbeat IPC: 1.24292 cumulative IPC: 1.16268 (Simulation time: 0 hr 2 min 21 sec) 
Finished CPU 0 instructions: 50000002 cycles: 43003953 cumulative IPC: 1.16268 (Simulation time: 0 hr 2 min 21 sec) 

ChampSim completed all CPUs

Region of Interest Statistics

CPU 0 cumulative IPC: 1.16268 instructions: 50000002 cycles: 43003953
L1D TOTAL     ACCESS:   20904359  HIT:   19274094  MISS:    1630265
L1D LOAD      ACCESS:    8256251  HIT:    7463734  MISS:     792517
L1D RFO       ACCESS:    4836491  HIT:    4728704  MISS:     107787
L1D PREFETCH  ACCESS:    7811617  HIT:    7081656  MISS:     729961
L1D WRITEBACK ACCESS:          0  HIT:          0  MISS:          0
L1D PREFETCH  REQUESTED:    8326060  ISSUED:    8161183  USEFUL:     208884  USELESS:     521082
L1D AVERAGE MISS LATENCY: 32.1968 cycles
L1I TOTAL     ACCESS:    9644852  HIT:    8972264  MISS:     672588
L1I LOAD      ACCESS:    9644852  HIT:    8972264  MISS:     672588
L1I RFO       ACCESS:          0  HIT:          0  MISS:          0
L1I PREFETCH  ACCESS:          0  HIT:          0  MISS:          0
L1I WRITEBACK ACCESS:          0  HIT:          0  MISS:          0
L1I PREFETCH  REQUESTED:          0  ISSUED:          0  USEFUL:          0  USELESS:          0
L1I AVERAGE MISS LATENCY: 17.4525 cycles
L2C TOTAL     ACCESS:    3656440  HIT:    3218825  MISS:     437615
L2C LOAD      ACCESS:    1420864  HIT:    1232510  MISS:     188354
L2C RFO       ACCESS:     102612  HIT:      18150  MISS:      84462
L2C PREFETCH  ACCESS:    1950935  HIT:    1786530  MISS:     164405
L2C WRITEBACK ACCESS:     182029  HIT:     181635  MISS:        394
L2C PREFETCH  REQUESTED:    2693122  ISSUED:    2692872  USEFUL:      16716  USELESS:     147459
L2C AVERAGE MISS LATENCY: 74.9093 cycles
LLC TOTAL     ACCESS:    1351151  HIT:    1172383  MISS:     178768
LLC LOAD      ACCESS:     188100  HIT:     163325  MISS:      24775
LLC RFO       ACCESS:      84457  HIT:      17095  MISS:      67362
LLC PREFETCH  ACCESS:     943010  HIT:     856742  MISS:      86268
LLC WRITEBACK ACCESS:     135584  HIT:     135221  MISS:        363
LLC PREFETCH  REQUESTED:          0  ISSUED:          0  USEFUL:      27408  USELESS:      64861
LLC AVERAGE MISS LATENCY: 164.138 cycles
Major fault: 0 Minor fault: 5303
CPU 0 L1D next line prefetcher final stats

DRAM Statistics
 CHANNEL 0
 RQ ROW_BUFFER_HIT:      51344  ROW_BUFFER_MISS:     127044
 DBUS_CONGESTED:      96416
 WQ ROW_BUFFER_HIT:      24202  ROW_BUFFER_MISS:      65717  FULL:          0

 AVG_CONGESTED_CYCLE: 6

CPU 0 Branch Prediction Accuracy: 98.6482% MPKI: 3.1551 Average ROB Occupancy at Mispredict: 89.7096

Branch types
NOT_BRANCH: 38329598 76.6592%
BRANCH_DIRECT_JUMP: 510116 1.02023%
BRANCH_INDIRECT: 225730 0.45146%
BRANCH_CONDITIONAL: 8366762 16.7335%
BRANCH_DIRECT_CALL: 600748 1.2015%
BRANCH_INDIRECT_CALL: 682990 1.36598%
BRANCH_RETURN: 1283974 2.56795%
BRANCH_OTHER: 0 0%

