Initialize SIGNATURE TABLE
ST_SET: 1
ST_WAY: 256
ST_TAG_BIT: 16
ST_TAG_MASK: ffff

Initialize PATTERN TABLE
PT_SET: 512
PT_WAY: 4
SIG_DELTA_BIT: 7
C_SIG_BIT: 4
C_DELTA_BIT: 4

Initialize PREFETCH FILTER
FILTER_SET: 1024

*** ChampSim Multicore Out-of-Order Simulator ***

Warmup Instructions: 50000000
Simulation Instructions: 50000000
Number of CPUs: 1
LLC sets: 2048
LLC ways: 16
Off-chip DRAM Size: 4096 MB Channels: 1 Width: 64-bit Data Rate: 3200 MT/s

CPU 0 runs /home/ykhodke/ChampSim/dpc3_traces/client_005.champsimtrace.xz
CPU 0 L1D next line prefetcher
Heartbeat CPU 0 instructions: 10000001 cycles: 3291784 heartbeat IPC: 3.03787 cumulative IPC: 3.03787 (Simulation time: 0 hr 0 min 13 sec) 
Heartbeat CPU 0 instructions: 20000002 cycles: 6697674 heartbeat IPC: 2.93609 cumulative IPC: 2.98611 (Simulation time: 0 hr 0 min 26 sec) 
Heartbeat CPU 0 instructions: 30000001 cycles: 10391134 heartbeat IPC: 2.70749 cumulative IPC: 2.88708 (Simulation time: 0 hr 0 min 41 sec) 
Heartbeat CPU 0 instructions: 40000000 cycles: 14069037 heartbeat IPC: 2.71894 cumulative IPC: 2.84312 (Simulation time: 0 hr 0 min 55 sec) 
Heartbeat CPU 0 instructions: 50000001 cycles: 17342567 heartbeat IPC: 3.05481 cumulative IPC: 2.88308 (Simulation time: 0 hr 1 min 8 sec) 

Warmup complete CPU 0 instructions: 50000001 cycles: 17342567 (Simulation time: 0 hr 1 min 8 sec) 

Heartbeat CPU 0 instructions: 60000002 cycles: 26410714 heartbeat IPC: 1.10276 cumulative IPC: 1.10276 (Simulation time: 0 hr 1 min 20 sec) 
Heartbeat CPU 0 instructions: 70000003 cycles: 34394134 heartbeat IPC: 1.2526 cumulative IPC: 1.17291 (Simulation time: 0 hr 1 min 33 sec) 
Heartbeat CPU 0 instructions: 80000001 cycles: 41634939 heartbeat IPC: 1.38106 cumulative IPC: 1.23496 (Simulation time: 0 hr 1 min 47 sec) 
Heartbeat CPU 0 instructions: 90000002 cycles: 51443487 heartbeat IPC: 1.01952 cumulative IPC: 1.17299 (Simulation time: 0 hr 2 min 2 sec) 
Heartbeat CPU 0 instructions: 100000002 cycles: 59894292 heartbeat IPC: 1.18332 cumulative IPC: 1.17504 (Simulation time: 0 hr 2 min 15 sec) 
Finished CPU 0 instructions: 50000001 cycles: 42551725 cumulative IPC: 1.17504 (Simulation time: 0 hr 2 min 15 sec) 

ChampSim completed all CPUs

Region of Interest Statistics

CPU 0 cumulative IPC: 1.17504 instructions: 50000001 cycles: 42551725
L1D TOTAL     ACCESS:   20040806  HIT:   19504581  MISS:     536225
L1D LOAD      ACCESS:    6838190  HIT:    6667466  MISS:     170724
L1D RFO       ACCESS:    6816391  HIT:    6632265  MISS:     184126
L1D PREFETCH  ACCESS:    6386225  HIT:    6204850  MISS:     181375
L1D WRITEBACK ACCESS:          0  HIT:          0  MISS:          0
L1D PREFETCH  REQUESTED:    6861690  ISSUED:    6490844  USEFUL:      60749  USELESS:     120513
L1D AVERAGE MISS LATENCY: 91.3056 cycles
L1I TOTAL     ACCESS:    9316520  HIT:    8721087  MISS:     595433
L1I LOAD      ACCESS:    9316520  HIT:    8721087  MISS:     595433
L1I RFO       ACCESS:          0  HIT:          0  MISS:          0
L1I PREFETCH  ACCESS:          0  HIT:          0  MISS:          0
L1I WRITEBACK ACCESS:          0  HIT:          0  MISS:          0
L1I PREFETCH  REQUESTED:          0  ISSUED:          0  USEFUL:          0  USELESS:          0
L1I AVERAGE MISS LATENCY: 21.6113 cycles
L2C TOTAL     ACCESS:    1927554  HIT:    1552692  MISS:     374862
L2C LOAD      ACCESS:     754963  HIT:     617479  MISS:     137484
L2C RFO       ACCESS:     180583  HIT:      33030  MISS:     147553
L2C PREFETCH  ACCESS:     738954  HIT:     650132  MISS:      88822
L2C WRITEBACK ACCESS:     253054  HIT:     252051  MISS:       1003
L2C PREFETCH  REQUESTED:    1025051  ISSUED:    1025049  USEFUL:       7103  USELESS:      81147
L2C AVERAGE MISS LATENCY: 123.712 cycles
LLC TOTAL     ACCESS:     859681  HIT:     563956  MISS:     295725
LLC LOAD      ACCESS:     137445  HIT:      87614  MISS:      49831
LLC RFO       ACCESS:     147551  HIT:      16980  MISS:     130571
LLC PREFETCH  ACCESS:     377255  HIT:     262875  MISS:     114380
LLC WRITEBACK ACCESS:     197430  HIT:     196487  MISS:        943
LLC PREFETCH  REQUESTED:          0  ISSUED:          0  USEFUL:      30891  USELESS:      82685
LLC AVERAGE MISS LATENCY: 162.265 cycles
Major fault: 0 Minor fault: 6084
CPU 0 L1D next line prefetcher final stats

DRAM Statistics
 CHANNEL 0
 RQ ROW_BUFFER_HIT:      95195  ROW_BUFFER_MISS:     199572
 DBUS_CONGESTED:     233438
 WQ ROW_BUFFER_HIT:      52936  ROW_BUFFER_MISS:     129375  FULL:          0

 AVG_CONGESTED_CYCLE: 6

CPU 0 Branch Prediction Accuracy: 97.8666% MPKI: 3.9013 Average ROB Occupancy at Mispredict: 74.2358

Branch types
NOT_BRANCH: 40856330 81.7127%
BRANCH_DIRECT_JUMP: 484667 0.969334%
BRANCH_INDIRECT: 85086 0.170172%
BRANCH_CONDITIONAL: 6230887 12.4618%
BRANCH_DIRECT_CALL: 1028917 2.05783%
BRANCH_INDIRECT_CALL: 141825 0.28365%
BRANCH_RETURN: 1171986 2.34397%
BRANCH_OTHER: 0 0%

