Initialize SIGNATURE TABLE
ST_SET: 1
ST_WAY: 256
ST_TAG_BIT: 16
ST_TAG_MASK: ffff

Initialize PATTERN TABLE
PT_SET: 512
PT_WAY: 4
SIG_DELTA_BIT: 7
C_SIG_BIT: 4
C_DELTA_BIT: 4

Initialize PREFETCH FILTER
FILTER_SET: 1024

*** ChampSim Multicore Out-of-Order Simulator ***

Warmup Instructions: 50000000
Simulation Instructions: 50000000
Number of CPUs: 1
LLC sets: 2048
LLC ways: 16
Off-chip DRAM Size: 4096 MB Channels: 1 Width: 64-bit Data Rate: 3200 MT/s

CPU 0 runs /home/ykhodke/ChampSim/dpc3_traces/server_019.champsimtrace.xz
CPU 0 L1D next line prefetcher
Heartbeat CPU 0 instructions: 10000002 cycles: 3628439 heartbeat IPC: 2.75601 cumulative IPC: 2.75601 (Simulation time: 0 hr 0 min 15 sec) 
Heartbeat CPU 0 instructions: 20000003 cycles: 7258489 heartbeat IPC: 2.75478 cumulative IPC: 2.75539 (Simulation time: 0 hr 0 min 29 sec) 
Heartbeat CPU 0 instructions: 30000002 cycles: 10887326 heartbeat IPC: 2.7557 cumulative IPC: 2.7555 (Simulation time: 0 hr 0 min 44 sec) 
Heartbeat CPU 0 instructions: 40000002 cycles: 14528214 heartbeat IPC: 2.74658 cumulative IPC: 2.75326 (Simulation time: 0 hr 0 min 58 sec) 
Heartbeat CPU 0 instructions: 50000001 cycles: 18157452 heartbeat IPC: 2.7554 cumulative IPC: 2.75369 (Simulation time: 0 hr 1 min 13 sec) 

Warmup complete CPU 0 instructions: 50000001 cycles: 18157452 (Simulation time: 0 hr 1 min 13 sec) 

Heartbeat CPU 0 instructions: 60000000 cycles: 40055846 heartbeat IPC: 0.456654 cumulative IPC: 0.456654 (Simulation time: 0 hr 1 min 33 sec) 
Heartbeat CPU 0 instructions: 70000002 cycles: 65104854 heartbeat IPC: 0.399217 cumulative IPC: 0.426009 (Simulation time: 0 hr 1 min 52 sec) 
Heartbeat CPU 0 instructions: 80000002 cycles: 87505002 heartbeat IPC: 0.446426 cumulative IPC: 0.432604 (Simulation time: 0 hr 2 min 11 sec) 
Heartbeat CPU 0 instructions: 90000000 cycles: 107310263 heartbeat IPC: 0.504916 cumulative IPC: 0.448668 (Simulation time: 0 hr 2 min 30 sec) 
Heartbeat CPU 0 instructions: 100000002 cycles: 127116678 heartbeat IPC: 0.504887 cumulative IPC: 0.458887 (Simulation time: 0 hr 2 min 49 sec) 
Finished CPU 0 instructions: 50000001 cycles: 108959226 cumulative IPC: 0.458887 (Simulation time: 0 hr 2 min 49 sec) 

ChampSim completed all CPUs

Region of Interest Statistics

CPU 0 cumulative IPC: 0.458887 instructions: 50000001 cycles: 108959226
L1D TOTAL     ACCESS:   19459423  HIT:   17236154  MISS:    2223269
L1D LOAD      ACCESS:    7523727  HIT:    6766530  MISS:     757197
L1D RFO       ACCESS:    5558350  HIT:    4656386  MISS:     901964
L1D PREFETCH  ACCESS:    6377346  HIT:    5813238  MISS:     564108
L1D WRITEBACK ACCESS:          0  HIT:          0  MISS:          0
L1D PREFETCH  REQUESTED:    7566546  ISSUED:    7397384  USEFUL:     195004  USELESS:     369012
L1D AVERAGE MISS LATENCY: 181.62 cycles
L1I TOTAL     ACCESS:    9731377  HIT:    7583537  MISS:    2147840
L1I LOAD      ACCESS:    9731377  HIT:    7583537  MISS:    2147840
L1I RFO       ACCESS:          0  HIT:          0  MISS:          0
L1I PREFETCH  ACCESS:          0  HIT:          0  MISS:          0
L1I WRITEBACK ACCESS:          0  HIT:          0  MISS:          0
L1I PREFETCH  REQUESTED:          0  ISSUED:          0  USEFUL:          0  USELESS:          0
L1I AVERAGE MISS LATENCY: 18.0069 cycles
L2C TOTAL     ACCESS:    7481678  HIT:    5589906  MISS:    1891772
L2C LOAD      ACCESS:    2701293  HIT:    2254105  MISS:     447188
L2C RFO       ACCESS:     901574  HIT:      18345  MISS:     883229
L2C PREFETCH  ACCESS:    2704077  HIT:    2144926  MISS:     559151
L2C WRITEBACK ACCESS:    1174734  HIT:    1172530  MISS:       2204
L2C PREFETCH  REQUESTED:    3803513  ISSUED:    3800974  USEFUL:      22505  USELESS:     535964
L2C AVERAGE MISS LATENCY: 216.11 cycles
LLC TOTAL     ACCESS:    4184341  HIT:    2564279  MISS:    1620062
LLC LOAD      ACCESS:     446792  HIT:     263947  MISS:     182845
LLC RFO       ACCESS:     883223  HIT:     114412  MISS:     768811
LLC PREFETCH  ACCESS:    1743948  HIT:    1077853  MISS:     666095
LLC WRITEBACK ACCESS:    1110378  HIT:    1108067  MISS:       2311
LLC PREFETCH  REQUESTED:          0  ISSUED:          0  USEFUL:      57105  USELESS:     608466
LLC AVERAGE MISS LATENCY: 263.417 cycles
Major fault: 0 Minor fault: 25691
CPU 0 L1D next line prefetcher final stats

DRAM Statistics
 CHANNEL 0
 RQ ROW_BUFFER_HIT:     393479  ROW_BUFFER_MISS:    1224098
 DBUS_CONGESTED:    1573173
 WQ ROW_BUFFER_HIT:     270268  ROW_BUFFER_MISS:     663952  FULL:          0

 AVG_CONGESTED_CYCLE: 6

CPU 0 Branch Prediction Accuracy: 99.2186% MPKI: 1.3219 Average ROB Occupancy at Mispredict: 168.219

Branch types
NOT_BRANCH: 41540764 83.0815%
BRANCH_DIRECT_JUMP: 462382 0.924764%
BRANCH_INDIRECT: 45460 0.09092%
BRANCH_CONDITIONAL: 6209273 12.4185%
BRANCH_DIRECT_CALL: 666240 1.33248%
BRANCH_INDIRECT_CALL: 204728 0.409456%
BRANCH_RETURN: 870977 1.74195%
BRANCH_OTHER: 0 0%

