Initialize SIGNATURE TABLE
ST_SET: 1
ST_WAY: 256
ST_TAG_BIT: 16
ST_TAG_MASK: ffff

Initialize PATTERN TABLE
PT_SET: 512
PT_WAY: 4
SIG_DELTA_BIT: 7
C_SIG_BIT: 4
C_DELTA_BIT: 4

Initialize PREFETCH FILTER
FILTER_SET: 1024

*** ChampSim Multicore Out-of-Order Simulator ***

Warmup Instructions: 50000000
Simulation Instructions: 50000000
Number of CPUs: 1
LLC sets: 2048
LLC ways: 16
Off-chip DRAM Size: 4096 MB Channels: 1 Width: 64-bit Data Rate: 3200 MT/s

CPU 0 runs /home/ykhodke/ChampSim/dpc3_traces/server_016.champsimtrace.xz
CPU 0 L1D next line prefetcher
Heartbeat CPU 0 instructions: 10000000 cycles: 3501281 heartbeat IPC: 2.8561 cumulative IPC: 2.8561 (Simulation time: 0 hr 0 min 14 sec) 
Heartbeat CPU 0 instructions: 20000000 cycles: 7003153 heartbeat IPC: 2.85562 cumulative IPC: 2.85586 (Simulation time: 0 hr 0 min 28 sec) 
Heartbeat CPU 0 instructions: 30000001 cycles: 10500739 heartbeat IPC: 2.85912 cumulative IPC: 2.85694 (Simulation time: 0 hr 0 min 42 sec) 
Heartbeat CPU 0 instructions: 40000000 cycles: 13799722 heartbeat IPC: 3.03124 cumulative IPC: 2.89861 (Simulation time: 0 hr 0 min 49 sec) 
Heartbeat CPU 0 instructions: 50000002 cycles: 17035187 heartbeat IPC: 3.09075 cumulative IPC: 2.9351 (Simulation time: 0 hr 0 min 55 sec) 

Warmup complete CPU 0 instructions: 50000002 cycles: 17035187 (Simulation time: 0 hr 0 min 55 sec) 

Heartbeat CPU 0 instructions: 60000003 cycles: 25373301 heartbeat IPC: 1.19931 cumulative IPC: 1.19931 (Simulation time: 0 hr 1 min 2 sec) 
Heartbeat CPU 0 instructions: 70000001 cycles: 35602745 heartbeat IPC: 0.97757 cumulative IPC: 1.07715 (Simulation time: 0 hr 1 min 14 sec) 
Heartbeat CPU 0 instructions: 80000000 cycles: 46100259 heartbeat IPC: 0.952606 cumulative IPC: 1.03217 (Simulation time: 0 hr 1 min 26 sec) 
Heartbeat CPU 0 instructions: 90000000 cycles: 56117408 heartbeat IPC: 0.998288 cumulative IPC: 1.02348 (Simulation time: 0 hr 1 min 38 sec) 
Heartbeat CPU 0 instructions: 100000000 cycles: 66463263 heartbeat IPC: 0.966571 cumulative IPC: 1.01157 (Simulation time: 0 hr 1 min 50 sec) 
Finished CPU 0 instructions: 50000001 cycles: 49428077 cumulative IPC: 1.01157 (Simulation time: 0 hr 1 min 50 sec) 

ChampSim completed all CPUs

Region of Interest Statistics

CPU 0 cumulative IPC: 1.01157 instructions: 50000001 cycles: 49428077
L1D TOTAL     ACCESS:   19926598  HIT:   18657044  MISS:    1269554
L1D LOAD      ACCESS:    7468146  HIT:    6905214  MISS:     562932
L1D RFO       ACCESS:    5256626  HIT:    5034756  MISS:     221870
L1D PREFETCH  ACCESS:    7201826  HIT:    6717074  MISS:     484752
L1D WRITEBACK ACCESS:          0  HIT:          0  MISS:          0
L1D PREFETCH  REQUESTED:    7509306  ISSUED:    7413955  USEFUL:     123940  USELESS:     360829
L1D AVERAGE MISS LATENCY: 22.4933 cycles
L1I TOTAL     ACCESS:    9720666  HIT:    7644784  MISS:    2075882
L1I LOAD      ACCESS:    9720666  HIT:    7644784  MISS:    2075882
L1I RFO       ACCESS:          0  HIT:          0  MISS:          0
L1I PREFETCH  ACCESS:          0  HIT:          0  MISS:          0
L1I WRITEBACK ACCESS:          0  HIT:          0  MISS:          0
L1I PREFETCH  REQUESTED:          0  ISSUED:          0  USEFUL:          0  USELESS:          0
L1I AVERAGE MISS LATENCY: 18.1204 cycles
L2C TOTAL     ACCESS:    5543276  HIT:    5034743  MISS:     508533
L2C LOAD      ACCESS:    2575305  HIT:    2224349  MISS:     350956
L2C RFO       ACCESS:     220247  HIT:     160356  MISS:      59891
L2C PREFETCH  ACCESS:    2319397  HIT:    2222606  MISS:      96791
L2C WRITEBACK ACCESS:     428327  HIT:     427432  MISS:        895
L2C PREFETCH  REQUESTED:    3469513  ISSUED:    3469274  USEFUL:       7739  USELESS:      90257
L2C AVERAGE MISS LATENCY: 39.0485 cycles
LLC TOTAL     ACCESS:    1668047  HIT:    1631892  MISS:      36155
LLC LOAD      ACCESS:     350452  HIT:     344932  MISS:       5520
LLC RFO       ACCESS:      59881  HIT:      46333  MISS:      13548
LLC PREFETCH  ACCESS:    1161672  HIT:    1144740  MISS:      16932
LLC WRITEBACK ACCESS:      96042  HIT:      95887  MISS:        155
LLC PREFETCH  REQUESTED:          0  ISSUED:          0  USEFUL:       2043  USELESS:      16159
LLC AVERAGE MISS LATENCY: 173.184 cycles
Major fault: 0 Minor fault: 2365
CPU 0 L1D next line prefetcher final stats

DRAM Statistics
 CHANNEL 0
 RQ ROW_BUFFER_HIT:      11763  ROW_BUFFER_MISS:      24236
 DBUS_CONGESTED:      22448
 WQ ROW_BUFFER_HIT:       1614  ROW_BUFFER_MISS:      13773  FULL:          0

 AVG_CONGESTED_CYCLE: 6

CPU 0 Branch Prediction Accuracy: 99.7225% MPKI: 0.50376 Average ROB Occupancy at Mispredict: 73.3038

Branch types
NOT_BRANCH: 40923882 81.8478%
BRANCH_DIRECT_JUMP: 487045 0.97409%
BRANCH_INDIRECT: 169158 0.338316%
BRANCH_CONDITIONAL: 6640823 13.2816%
BRANCH_DIRECT_CALL: 755586 1.51117%
BRANCH_INDIRECT_CALL: 133962 0.267924%
BRANCH_RETURN: 889566 1.77913%
BRANCH_OTHER: 0 0%

