Initialize SIGNATURE TABLE
ST_SET: 1
ST_WAY: 256
ST_TAG_BIT: 16
ST_TAG_MASK: ffff

Initialize PATTERN TABLE
PT_SET: 512
PT_WAY: 4
SIG_DELTA_BIT: 7
C_SIG_BIT: 4
C_DELTA_BIT: 4

Initialize PREFETCH FILTER
FILTER_SET: 1024

*** ChampSim Multicore Out-of-Order Simulator ***

Warmup Instructions: 50000000
Simulation Instructions: 50000000
Number of CPUs: 1
LLC sets: 2048
LLC ways: 16
Off-chip DRAM Size: 4096 MB Channels: 1 Width: 64-bit Data Rate: 3200 MT/s

CPU 0 runs /home/ykhodke/ChampSim/dpc3_traces/server_002.champsimtrace.xz
CPU 0 L1D next line prefetcher
Heartbeat CPU 0 instructions: 10000000 cycles: 3581212 heartbeat IPC: 2.79235 cumulative IPC: 2.79235 (Simulation time: 0 hr 0 min 13 sec) 
Heartbeat CPU 0 instructions: 20000002 cycles: 7170059 heartbeat IPC: 2.78641 cumulative IPC: 2.78938 (Simulation time: 0 hr 0 min 26 sec) 
Heartbeat CPU 0 instructions: 30000000 cycles: 10710830 heartbeat IPC: 2.82424 cumulative IPC: 2.8009 (Simulation time: 0 hr 0 min 40 sec) 
Heartbeat CPU 0 instructions: 40000000 cycles: 14261075 heartbeat IPC: 2.81671 cumulative IPC: 2.80484 (Simulation time: 0 hr 0 min 53 sec) 
Heartbeat CPU 0 instructions: 50000001 cycles: 17808846 heartbeat IPC: 2.81867 cumulative IPC: 2.80759 (Simulation time: 0 hr 1 min 7 sec) 

Warmup complete CPU 0 instructions: 50000001 cycles: 17808846 (Simulation time: 0 hr 1 min 7 sec) 

Heartbeat CPU 0 instructions: 60000000 cycles: 25021888 heartbeat IPC: 1.38638 cumulative IPC: 1.38638 (Simulation time: 0 hr 1 min 19 sec) 
Heartbeat CPU 0 instructions: 70000003 cycles: 32231821 heartbeat IPC: 1.38698 cumulative IPC: 1.38668 (Simulation time: 0 hr 1 min 30 sec) 
Heartbeat CPU 0 instructions: 80000003 cycles: 39438659 heartbeat IPC: 1.38757 cumulative IPC: 1.38697 (Simulation time: 0 hr 1 min 42 sec) 
Heartbeat CPU 0 instructions: 90000002 cycles: 46653797 heartbeat IPC: 1.38597 cumulative IPC: 1.38672 (Simulation time: 0 hr 1 min 54 sec) 
Heartbeat CPU 0 instructions: 100000003 cycles: 53858639 heartbeat IPC: 1.38796 cumulative IPC: 1.38697 (Simulation time: 0 hr 2 min 5 sec) 
Finished CPU 0 instructions: 50000002 cycles: 36049793 cumulative IPC: 1.38697 (Simulation time: 0 hr 2 min 5 sec) 

ChampSim completed all CPUs

Region of Interest Statistics

CPU 0 cumulative IPC: 1.38697 instructions: 50000002 cycles: 36049793
L1D TOTAL     ACCESS:   22378593  HIT:   22377783  MISS:        810
L1D LOAD      ACCESS:    7025637  HIT:    7025263  MISS:        374
L1D RFO       ACCESS:    8427558  HIT:    8427444  MISS:        114
L1D PREFETCH  ACCESS:    6925398  HIT:    6925076  MISS:        322
L1D WRITEBACK ACCESS:          0  HIT:          0  MISS:          0
L1D PREFETCH  REQUESTED:    7025696  ISSUED:    6930505  USEFUL:         93  USELESS:        230
L1D AVERAGE MISS LATENCY: 32.2198 cycles
L1I TOTAL     ACCESS:    9675912  HIT:    8856311  MISS:     819601
L1I LOAD      ACCESS:    9675912  HIT:    8856311  MISS:     819601
L1I RFO       ACCESS:          0  HIT:          0  MISS:          0
L1I PREFETCH  ACCESS:          0  HIT:          0  MISS:          0
L1I WRITEBACK ACCESS:          0  HIT:          0  MISS:          0
L1I PREFETCH  REQUESTED:          0  ISSUED:          0  USEFUL:          0  USELESS:          0
L1I AVERAGE MISS LATENCY: 14.0231 cycles
L2C TOTAL     ACCESS:    1173695  HIT:    1173454  MISS:        241
L2C LOAD      ACCESS:     819963  HIT:     819857  MISS:        106
L2C RFO       ACCESS:        113  HIT:        111  MISS:          2
L2C PREFETCH  ACCESS:     353282  HIT:     353150  MISS:        132
L2C WRITEBACK ACCESS:        337  HIT:        336  MISS:          1
L2C PREFETCH  REQUESTED:     545456  ISSUED:     545456  USEFUL:         44  USELESS:         84
L2C AVERAGE MISS LATENCY: 91.2946 cycles
LLC TOTAL     ACCESS:     153108  HIT:     152548  MISS:        560
LLC LOAD      ACCESS:        106  HIT:         86  MISS:         20
LLC RFO       ACCESS:          2  HIT:          0  MISS:          2
LLC PREFETCH  ACCESS:     152910  HIT:     152375  MISS:        535
LLC WRITEBACK ACCESS:         90  HIT:         87  MISS:          3
LLC PREFETCH  REQUESTED:          0  ISSUED:          0  USEFUL:         12  USELESS:        112
LLC AVERAGE MISS LATENCY: 212.779 cycles
Major fault: 0 Minor fault: 1867
CPU 0 L1D next line prefetcher final stats

DRAM Statistics
 CHANNEL 0
 RQ ROW_BUFFER_HIT:         89  ROW_BUFFER_MISS:        468
 DBUS_CONGESTED:        328
 WQ ROW_BUFFER_HIT:         88  ROW_BUFFER_MISS:        314  FULL:          0

 AVG_CONGESTED_CYCLE: 6

CPU 0 Branch Prediction Accuracy: 99.8789% MPKI: 0.20388 Average ROB Occupancy at Mispredict: 62.4246

Branch types
NOT_BRANCH: 41580685 83.1614%
BRANCH_DIRECT_JUMP: 461629 0.923258%
BRANCH_INDIRECT: 0 0%
BRANCH_CONDITIONAL: 5376435 10.7529%
BRANCH_DIRECT_CALL: 1175774 2.35155%
BRANCH_INDIRECT_CALL: 114840 0.22968%
BRANCH_RETURN: 1290624 2.58125%
BRANCH_OTHER: 0 0%

