Initialize SIGNATURE TABLE
ST_SET: 1
ST_WAY: 256
ST_TAG_BIT: 16
ST_TAG_MASK: ffff

Initialize PATTERN TABLE
PT_SET: 512
PT_WAY: 4
SIG_DELTA_BIT: 7
C_SIG_BIT: 4
C_DELTA_BIT: 4

Initialize PREFETCH FILTER
FILTER_SET: 1024

*** ChampSim Multicore Out-of-Order Simulator ***

Warmup Instructions: 50000000
Simulation Instructions: 50000000
Number of CPUs: 1
LLC sets: 2048
LLC ways: 16
Off-chip DRAM Size: 4096 MB Channels: 1 Width: 64-bit Data Rate: 3200 MT/s

CPU 0 runs /home/ykhodke/ChampSim/dpc3_traces/server_029.champsimtrace.xz
CPU 0 L1D next line prefetcher
Heartbeat CPU 0 instructions: 10000001 cycles: 3501294 heartbeat IPC: 2.85609 cumulative IPC: 2.85609 (Simulation time: 0 hr 0 min 15 sec) 
Heartbeat CPU 0 instructions: 20000002 cycles: 7001268 heartbeat IPC: 2.85716 cumulative IPC: 2.85663 (Simulation time: 0 hr 0 min 29 sec) 
Heartbeat CPU 0 instructions: 30000000 cycles: 10502716 heartbeat IPC: 2.85596 cumulative IPC: 2.8564 (Simulation time: 0 hr 0 min 43 sec) 
Heartbeat CPU 0 instructions: 40000000 cycles: 14011240 heartbeat IPC: 2.8502 cumulative IPC: 2.85485 (Simulation time: 0 hr 0 min 57 sec) 
Heartbeat CPU 0 instructions: 50000000 cycles: 17518155 heartbeat IPC: 2.85151 cumulative IPC: 2.85418 (Simulation time: 0 hr 1 min 12 sec) 

Warmup complete CPU 0 instructions: 50000004 cycles: 17518156 (Simulation time: 0 hr 1 min 12 sec) 

Heartbeat CPU 0 instructions: 60000000 cycles: 28863636 heartbeat IPC: 0.881408 cumulative IPC: 0.881408 (Simulation time: 0 hr 1 min 24 sec) 
Heartbeat CPU 0 instructions: 70000003 cycles: 40416130 heartbeat IPC: 0.865614 cumulative IPC: 0.87344 (Simulation time: 0 hr 1 min 37 sec) 
Heartbeat CPU 0 instructions: 80000002 cycles: 51732512 heartbeat IPC: 0.883675 cumulative IPC: 0.876825 (Simulation time: 0 hr 1 min 49 sec) 
*** Reached end of trace for Core: 0 Repeating trace: /home/ykhodke/ChampSim/dpc3_traces/server_029.champsimtrace.xz
Heartbeat CPU 0 instructions: 90000000 cycles: 62951282 heartbeat IPC: 0.891363 cumulative IPC: 0.880415 (Simulation time: 0 hr 2 min 1 sec) 
Heartbeat CPU 0 instructions: 100000003 cycles: 74176969 heartbeat IPC: 0.890814 cumulative IPC: 0.882475 (Simulation time: 0 hr 2 min 13 sec) 
Finished CPU 0 instructions: 50000003 cycles: 56658814 cumulative IPC: 0.882475 (Simulation time: 0 hr 2 min 13 sec) 

ChampSim completed all CPUs

Region of Interest Statistics

CPU 0 cumulative IPC: 0.882475 instructions: 50000003 cycles: 56658814
L1D TOTAL     ACCESS:   21698367  HIT:   19599285  MISS:    2099082
L1D LOAD      ACCESS:    7983363  HIT:    6932274  MISS:    1051089
L1D RFO       ACCESS:    6214632  HIT:    5928115  MISS:     286517
L1D PREFETCH  ACCESS:    7500372  HIT:    6738896  MISS:     761476
L1D WRITEBACK ACCESS:          0  HIT:          0  MISS:          0
L1D PREFETCH  REQUESTED:    8047180  ISSUED:    7968985  USEFUL:     189245  USELESS:     572221
L1D AVERAGE MISS LATENCY: 20.4927 cycles
L1I TOTAL     ACCESS:    9558810  HIT:    6650228  MISS:    2908582
L1I LOAD      ACCESS:    9558810  HIT:    6650228  MISS:    2908582
L1I RFO       ACCESS:          0  HIT:          0  MISS:          0
L1I PREFETCH  ACCESS:          0  HIT:          0  MISS:          0
L1I WRITEBACK ACCESS:          0  HIT:          0  MISS:          0
L1I PREFETCH  REQUESTED:          0  ISSUED:          0  USEFUL:          0  USELESS:          0
L1I AVERAGE MISS LATENCY: 17.4924 cycles
L2C TOTAL     ACCESS:    8309473  HIT:    7679173  MISS:     630300
L2C LOAD      ACCESS:    3775365  HIT:    3339555  MISS:     435810
L2C RFO       ACCESS:     283400  HIT:     239291  MISS:      44109
L2C PREFETCH  ACCESS:    3639659  HIT:    3489961  MISS:     149698
L2C WRITEBACK ACCESS:     611049  HIT:     610366  MISS:        683
L2C PREFETCH  REQUESTED:    5749321  ISSUED:    5748194  USEFUL:      11681  USELESS:     138047
L2C AVERAGE MISS LATENCY: 40.8405 cycles
LLC TOTAL     ACCESS:    2661222  HIT:    2584421  MISS:      76801
LLC LOAD      ACCESS:     434353  HIT:     415438  MISS:      18915
LLC RFO       ACCESS:      44109  HIT:      40444  MISS:       3665
LLC PREFETCH  ACCESS:    2091974  HIT:    2038410  MISS:      53564
LLC WRITEBACK ACCESS:      90786  HIT:      90129  MISS:        657
LLC PREFETCH  REQUESTED:          0  ISSUED:          0  USEFUL:       3071  USELESS:      51543
LLC AVERAGE MISS LATENCY: 157.875 cycles
Major fault: 0 Minor fault: 5918
CPU 0 L1D next line prefetcher final stats

DRAM Statistics
 CHANNEL 0
 RQ ROW_BUFFER_HIT:      21825  ROW_BUFFER_MISS:      54308
 DBUS_CONGESTED:      31265
 WQ ROW_BUFFER_HIT:        620  ROW_BUFFER_MISS:       4073  FULL:          0

 AVG_CONGESTED_CYCLE: 5

CPU 0 Branch Prediction Accuracy: 99.7245% MPKI: 0.51862 Average ROB Occupancy at Mispredict: 105.82

Branch types
NOT_BRANCH: 40586562 81.1731%
BRANCH_DIRECT_JUMP: 525208 1.05042%
BRANCH_INDIRECT: 166359 0.332718%
BRANCH_CONDITIONAL: 6373088 12.7462%
BRANCH_DIRECT_CALL: 989262 1.97852%
BRANCH_INDIRECT_CALL: 184984 0.369968%
BRANCH_RETURN: 1174250 2.3485%
BRANCH_OTHER: 0 0%

