Initialize SIGNATURE TABLE
ST_SET: 1
ST_WAY: 256
ST_TAG_BIT: 16
ST_TAG_MASK: ffff

Initialize PATTERN TABLE
PT_SET: 512
PT_WAY: 4
SIG_DELTA_BIT: 7
C_SIG_BIT: 4
C_DELTA_BIT: 4

Initialize PREFETCH FILTER
FILTER_SET: 1024

*** ChampSim Multicore Out-of-Order Simulator ***

Warmup Instructions: 50000000
Simulation Instructions: 50000000
Number of CPUs: 1
LLC sets: 2048
LLC ways: 16
Off-chip DRAM Size: 4096 MB Channels: 1 Width: 64-bit Data Rate: 3200 MT/s

CPU 0 runs /home/ykhodke/ChampSim/dpc3_traces/server_035.champsimtrace.xz
CPU 0 L1D next line prefetcher
Heartbeat CPU 0 instructions: 10000001 cycles: 3345894 heartbeat IPC: 2.98874 cumulative IPC: 2.98874 (Simulation time: 0 hr 0 min 14 sec) 
Heartbeat CPU 0 instructions: 20000000 cycles: 6690397 heartbeat IPC: 2.98998 cumulative IPC: 2.98936 (Simulation time: 0 hr 0 min 28 sec) 
Heartbeat CPU 0 instructions: 30000000 cycles: 10031601 heartbeat IPC: 2.99293 cumulative IPC: 2.99055 (Simulation time: 0 hr 0 min 42 sec) 
Heartbeat CPU 0 instructions: 40000000 cycles: 13378700 heartbeat IPC: 2.98766 cumulative IPC: 2.98983 (Simulation time: 0 hr 0 min 57 sec) 
Heartbeat CPU 0 instructions: 50000003 cycles: 16722993 heartbeat IPC: 2.99017 cumulative IPC: 2.9899 (Simulation time: 0 hr 1 min 11 sec) 

Warmup complete CPU 0 instructions: 50000003 cycles: 16722993 (Simulation time: 0 hr 1 min 11 sec) 

Heartbeat CPU 0 instructions: 60000001 cycles: 28020339 heartbeat IPC: 0.885163 cumulative IPC: 0.885163 (Simulation time: 0 hr 1 min 24 sec) 
Heartbeat CPU 0 instructions: 70000003 cycles: 39030970 heartbeat IPC: 0.908213 cumulative IPC: 0.89654 (Simulation time: 0 hr 1 min 37 sec) 
Heartbeat CPU 0 instructions: 80000001 cycles: 50171691 heartbeat IPC: 0.897608 cumulative IPC: 0.896896 (Simulation time: 0 hr 1 min 50 sec) 
Heartbeat CPU 0 instructions: 90000003 cycles: 60638989 heartbeat IPC: 0.955357 cumulative IPC: 0.91083 (Simulation time: 0 hr 2 min 2 sec) 
Heartbeat CPU 0 instructions: 100000002 cycles: 71795266 heartbeat IPC: 0.896356 cumulative IPC: 0.907898 (Simulation time: 0 hr 2 min 15 sec) 
Finished CPU 0 instructions: 50000003 cycles: 55072274 cumulative IPC: 0.907898 (Simulation time: 0 hr 2 min 15 sec) 

ChampSim completed all CPUs

Region of Interest Statistics

CPU 0 cumulative IPC: 0.907898 instructions: 50000003 cycles: 55072274
L1D TOTAL     ACCESS:   20525309  HIT:   19020130  MISS:    1505179
L1D LOAD      ACCESS:    7244496  HIT:    6551052  MISS:     693444
L1D RFO       ACCESS:    6219995  HIT:    6066031  MISS:     153964
L1D PREFETCH  ACCESS:    7060818  HIT:    6403047  MISS:     657771
L1D WRITEBACK ACCESS:          0  HIT:          0  MISS:          0
L1D PREFETCH  REQUESTED:    7298131  ISSUED:    7220596  USEFUL:     144424  USELESS:     513352
L1D AVERAGE MISS LATENCY: 42.4181 cycles
L1I TOTAL     ACCESS:    9621866  HIT:    6285786  MISS:    3336080
L1I LOAD      ACCESS:    9621866  HIT:    6285786  MISS:    3336080
L1I RFO       ACCESS:          0  HIT:          0  MISS:          0
L1I PREFETCH  ACCESS:          0  HIT:          0  MISS:          0
L1I WRITEBACK ACCESS:          0  HIT:          0  MISS:          0
L1I PREFETCH  REQUESTED:          0  ISSUED:          0  USEFUL:          0  USELESS:          0
L1I AVERAGE MISS LATENCY: 14.9267 cycles
L2C TOTAL     ACCESS:    8412389  HIT:    8118974  MISS:     293415
L2C LOAD      ACCESS:    4019984  HIT:    3871448  MISS:     148536
L2C RFO       ACCESS:     153684  HIT:     133034  MISS:      20650
L2C PREFETCH  ACCESS:    3874189  HIT:    3750636  MISS:     123553
L2C WRITEBACK ACCESS:     364532  HIT:     363856  MISS:        676
L2C PREFETCH  REQUESTED:    6224390  ISSUED:    6220424  USEFUL:      13552  USELESS:     110125
L2C AVERAGE MISS LATENCY: 151.888 cycles
LLC TOTAL     ACCESS:    2356739  HIT:    2067240  MISS:     289499
LLC LOAD      ACCESS:     147909  HIT:      61439  MISS:      86470
LLC RFO       ACCESS:      20646  HIT:      10163  MISS:      10483
LLC PREFETCH  ACCESS:    2087292  HIT:    1895856  MISS:     191436
LLC WRITEBACK ACCESS:     100892  HIT:      99782  MISS:       1110
LLC PREFETCH  REQUESTED:          0  ISSUED:          0  USEFUL:      38317  USELESS:     154124
LLC AVERAGE MISS LATENCY: 207.583 cycles
Major fault: 0 Minor fault: 5547
CPU 0 L1D next line prefetcher final stats

DRAM Statistics
 CHANNEL 0
 RQ ROW_BUFFER_HIT:      71747  ROW_BUFFER_MISS:     216635
 DBUS_CONGESTED:     170562
 WQ ROW_BUFFER_HIT:      17758  ROW_BUFFER_MISS:      73155  FULL:          0

 AVG_CONGESTED_CYCLE: 5

CPU 0 Branch Prediction Accuracy: 99.9115% MPKI: 0.17232 Average ROB Occupancy at Mispredict: 146.137

Branch types
NOT_BRANCH: 40267199 80.5344%
BRANCH_DIRECT_JUMP: 771899 1.5438%
BRANCH_INDIRECT: 108179 0.216358%
BRANCH_CONDITIONAL: 6307160 12.6143%
BRANCH_DIRECT_CALL: 1060892 2.12178%
BRANCH_INDIRECT_CALL: 211719 0.423438%
BRANCH_RETURN: 1272633 2.54527%
BRANCH_OTHER: 0 0%

