Initialize SIGNATURE TABLE
ST_SET: 1
ST_WAY: 256
ST_TAG_BIT: 16
ST_TAG_MASK: ffff

Initialize PATTERN TABLE
PT_SET: 512
PT_WAY: 4
SIG_DELTA_BIT: 7
C_SIG_BIT: 4
C_DELTA_BIT: 4

Initialize PREFETCH FILTER
FILTER_SET: 1024

*** ChampSim Multicore Out-of-Order Simulator ***

Warmup Instructions: 50000000
Simulation Instructions: 50000000
Number of CPUs: 1
LLC sets: 2048
LLC ways: 16
Off-chip DRAM Size: 4096 MB Channels: 1 Width: 64-bit Data Rate: 3200 MT/s

CPU 0 runs /home/ykhodke/ChampSim/dpc3_traces/server_031.champsimtrace.xz
CPU 0 L1D next line prefetcher
Heartbeat CPU 0 instructions: 10000003 cycles: 3529879 heartbeat IPC: 2.83296 cumulative IPC: 2.83296 (Simulation time: 0 hr 0 min 14 sec) 
Heartbeat CPU 0 instructions: 20000002 cycles: 7059467 heartbeat IPC: 2.83319 cumulative IPC: 2.83308 (Simulation time: 0 hr 0 min 28 sec) 
Heartbeat CPU 0 instructions: 30000002 cycles: 10588484 heartbeat IPC: 2.83365 cumulative IPC: 2.83327 (Simulation time: 0 hr 0 min 43 sec) 
Heartbeat CPU 0 instructions: 40000003 cycles: 14113627 heartbeat IPC: 2.83676 cumulative IPC: 2.83414 (Simulation time: 0 hr 0 min 57 sec) 
Heartbeat CPU 0 instructions: 50000000 cycles: 17640779 heartbeat IPC: 2.83515 cumulative IPC: 2.83434 (Simulation time: 0 hr 1 min 11 sec) 

Warmup complete CPU 0 instructions: 50000004 cycles: 17640780 (Simulation time: 0 hr 1 min 11 sec) 

Heartbeat CPU 0 instructions: 60000001 cycles: 29136083 heartbeat IPC: 0.869921 cumulative IPC: 0.86992 (Simulation time: 0 hr 1 min 24 sec) 
Heartbeat CPU 0 instructions: 70000002 cycles: 40743130 heartbeat IPC: 0.861546 cumulative IPC: 0.865713 (Simulation time: 0 hr 1 min 36 sec) 
*** Reached end of trace for Core: 0 Repeating trace: /home/ykhodke/ChampSim/dpc3_traces/server_031.champsimtrace.xz
Heartbeat CPU 0 instructions: 80000000 cycles: 52119719 heartbeat IPC: 0.878998 cumulative IPC: 0.870096 (Simulation time: 0 hr 1 min 48 sec) 
Heartbeat CPU 0 instructions: 90000001 cycles: 63573565 heartbeat IPC: 0.873069 cumulative IPC: 0.870838 (Simulation time: 0 hr 2 min 1 sec) 
Heartbeat CPU 0 instructions: 100000000 cycles: 74985478 heartbeat IPC: 0.876277 cumulative IPC: 0.87192 (Simulation time: 0 hr 2 min 13 sec) 
Finished CPU 0 instructions: 50000000 cycles: 57344703 cumulative IPC: 0.87192 (Simulation time: 0 hr 2 min 13 sec) 

ChampSim completed all CPUs

Region of Interest Statistics

CPU 0 cumulative IPC: 0.87192 instructions: 50000000 cycles: 57344703
L1D TOTAL     ACCESS:   22322649  HIT:   20414980  MISS:    1907669
L1D LOAD      ACCESS:    8096316  HIT:    7240484  MISS:     855832
L1D RFO       ACCESS:    6432532  HIT:    6139741  MISS:     292791
L1D PREFETCH  ACCESS:    7793801  HIT:    7034755  MISS:     759046
L1D WRITEBACK ACCESS:          0  HIT:          0  MISS:          0
L1D PREFETCH  REQUESTED:    8157178  ISSUED:    8077485  USEFUL:     190380  USELESS:     568668
L1D AVERAGE MISS LATENCY: 21.7789 cycles
L1I TOTAL     ACCESS:    9455085  HIT:    6458311  MISS:    2996774
L1I LOAD      ACCESS:    9455085  HIT:    6458311  MISS:    2996774
L1I RFO       ACCESS:          0  HIT:          0  MISS:          0
L1I PREFETCH  ACCESS:          0  HIT:          0  MISS:          0
L1I WRITEBACK ACCESS:          0  HIT:          0  MISS:          0
L1I PREFETCH  REQUESTED:          0  ISSUED:          0  USEFUL:          0  USELESS:          0
L1I AVERAGE MISS LATENCY: 17.4696 cycles
L2C TOTAL     ACCESS:    8200614  HIT:    7606123  MISS:     594491
L2C LOAD      ACCESS:    3777573  HIT:    3348741  MISS:     428832
L2C RFO       ACCESS:     289764  HIT:     251301  MISS:      38463
L2C PREFETCH  ACCESS:    3516322  HIT:    3389669  MISS:     126653
L2C WRITEBACK ACCESS:     616955  HIT:     616412  MISS:        543
L2C PREFETCH  REQUESTED:    5476383  ISSUED:    5476188  USEFUL:       7169  USELESS:     119335
L2C AVERAGE MISS LATENCY: 42.5931 cycles
LLC TOTAL     ACCESS:    2603598  HIT:    2519353  MISS:      84245
LLC LOAD      ACCESS:     427206  HIT:     406722  MISS:      20484
LLC RFO       ACCESS:      38461  HIT:      34215  MISS:       4246
LLC PREFETCH  ACCESS:    2067709  HIT:    2008812  MISS:      58897
LLC WRITEBACK ACCESS:      70222  HIT:      69604  MISS:        618
LLC PREFETCH  REQUESTED:          0  ISSUED:          0  USEFUL:       3178  USELESS:      54630
LLC AVERAGE MISS LATENCY: 158.487 cycles
Major fault: 0 Minor fault: 6041
CPU 0 L1D next line prefetcher final stats

DRAM Statistics
 CHANNEL 0
 RQ ROW_BUFFER_HIT:      24322  ROW_BUFFER_MISS:      59299
 DBUS_CONGESTED:      33496
 WQ ROW_BUFFER_HIT:        823  ROW_BUFFER_MISS:       5350  FULL:          0

 AVG_CONGESTED_CYCLE: 5

CPU 0 Branch Prediction Accuracy: 99.6894% MPKI: 0.58048 Average ROB Occupancy at Mispredict: 100.864

Branch types
NOT_BRANCH: 40655580 81.3112%
BRANCH_DIRECT_JUMP: 546483 1.09297%
BRANCH_INDIRECT: 172433 0.344866%
BRANCH_CONDITIONAL: 6207572 12.4151%
BRANCH_DIRECT_CALL: 1018498 2.037%
BRANCH_INDIRECT_CALL: 190373 0.380746%
BRANCH_RETURN: 1208855 2.41771%
BRANCH_OTHER: 0 0%

