Initialize SIGNATURE TABLE
ST_SET: 1
ST_WAY: 256
ST_TAG_BIT: 16
ST_TAG_MASK: ffff

Initialize PATTERN TABLE
PT_SET: 512
PT_WAY: 4
SIG_DELTA_BIT: 7
C_SIG_BIT: 4
C_DELTA_BIT: 4

Initialize PREFETCH FILTER
FILTER_SET: 1024

*** ChampSim Multicore Out-of-Order Simulator ***

Warmup Instructions: 50000000
Simulation Instructions: 50000000
Number of CPUs: 1
LLC sets: 2048
LLC ways: 16
Off-chip DRAM Size: 4096 MB Channels: 1 Width: 64-bit Data Rate: 3200 MT/s

CPU 0 runs /home/ykhodke/ChampSim/dpc3_traces/server_021.champsimtrace.xz
CPU 0 L1D next line prefetcher
Heartbeat CPU 0 instructions: 10000000 cycles: 3629272 heartbeat IPC: 2.75537 cumulative IPC: 2.75537 (Simulation time: 0 hr 0 min 15 sec) 
Heartbeat CPU 0 instructions: 20000000 cycles: 7253013 heartbeat IPC: 2.75958 cumulative IPC: 2.75747 (Simulation time: 0 hr 0 min 29 sec) 
Heartbeat CPU 0 instructions: 30000003 cycles: 10907340 heartbeat IPC: 2.73648 cumulative IPC: 2.75044 (Simulation time: 0 hr 0 min 44 sec) 
Heartbeat CPU 0 instructions: 40000001 cycles: 14526358 heartbeat IPC: 2.76318 cumulative IPC: 2.75362 (Simulation time: 0 hr 0 min 58 sec) 
Heartbeat CPU 0 instructions: 50000002 cycles: 18167195 heartbeat IPC: 2.74662 cumulative IPC: 2.75221 (Simulation time: 0 hr 1 min 13 sec) 

Warmup complete CPU 0 instructions: 50000002 cycles: 18167195 (Simulation time: 0 hr 1 min 13 sec) 

Heartbeat CPU 0 instructions: 60000001 cycles: 37015988 heartbeat IPC: 0.530538 cumulative IPC: 0.530538 (Simulation time: 0 hr 1 min 31 sec) 
Heartbeat CPU 0 instructions: 70000002 cycles: 56173277 heartbeat IPC: 0.521995 cumulative IPC: 0.526232 (Simulation time: 0 hr 1 min 50 sec) 
Heartbeat CPU 0 instructions: 80000001 cycles: 75149986 heartbeat IPC: 0.526962 cumulative IPC: 0.526475 (Simulation time: 0 hr 2 min 8 sec) 
Heartbeat CPU 0 instructions: 90000001 cycles: 94223970 heartbeat IPC: 0.524274 cumulative IPC: 0.525923 (Simulation time: 0 hr 2 min 27 sec) 
Heartbeat CPU 0 instructions: 100000002 cycles: 113162232 heartbeat IPC: 0.528032 cumulative IPC: 0.526343 (Simulation time: 0 hr 2 min 45 sec) 
Finished CPU 0 instructions: 50000000 cycles: 94995037 cumulative IPC: 0.526343 (Simulation time: 0 hr 2 min 45 sec) 

ChampSim completed all CPUs

Region of Interest Statistics

CPU 0 cumulative IPC: 0.526343 instructions: 50000000 cycles: 94995037
L1D TOTAL     ACCESS:   20058830  HIT:   17855398  MISS:    2203432
L1D LOAD      ACCESS:    7701186  HIT:    6993631  MISS:     707555
L1D RFO       ACCESS:    5927644  HIT:    4952123  MISS:     975521
L1D PREFETCH  ACCESS:    6430000  HIT:    5909644  MISS:     520356
L1D WRITEBACK ACCESS:          0  HIT:          0  MISS:          0
L1D PREFETCH  REQUESTED:    7750600  ISSUED:    7564309  USEFUL:     199091  USELESS:     321259
L1D AVERAGE MISS LATENCY: 174.568 cycles
L1I TOTAL     ACCESS:    9980232  HIT:    7539180  MISS:    2441052
L1I LOAD      ACCESS:    9980232  HIT:    7539180  MISS:    2441052
L1I RFO       ACCESS:          0  HIT:          0  MISS:          0
L1I PREFETCH  ACCESS:          0  HIT:          0  MISS:          0
L1I WRITEBACK ACCESS:          0  HIT:          0  MISS:          0
L1I PREFETCH  REQUESTED:          0  ISSUED:          0  USEFUL:          0  USELESS:          0
L1I AVERAGE MISS LATENCY: 17.1557 cycles
L2C TOTAL     ACCESS:    7994789  HIT:    6133808  MISS:    1860981
L2C LOAD      ACCESS:    2914695  HIT:    2540944  MISS:     373751
L2C RFO       ACCESS:     975069  HIT:      21924  MISS:     953145
L2C PREFETCH  ACCESS:    2925170  HIT:    2393583  MISS:     531587
L2C WRITEBACK ACCESS:    1179855  HIT:    1177357  MISS:       2498
L2C PREFETCH  REQUESTED:    4000626  ISSUED:    3997036  USEFUL:      20765  USELESS:     510847
L2C AVERAGE MISS LATENCY: 211.722 cycles
LLC TOTAL     ACCESS:    4069785  HIT:    2690093  MISS:    1379692
LLC LOAD      ACCESS:     373441  HIT:     284258  MISS:      89183
LLC RFO       ACCESS:     953141  HIT:     141648  MISS:     811493
LLC PREFETCH  ACCESS:    1631241  HIT:    1154257  MISS:     476984
LLC WRITEBACK ACCESS:    1111962  HIT:    1109930  MISS:       2032
LLC PREFETCH  REQUESTED:          0  ISSUED:          0  USEFUL:      31584  USELESS:     445143
LLC AVERAGE MISS LATENCY: 280.017 cycles
Major fault: 0 Minor fault: 22289
CPU 0 L1D next line prefetcher final stats

DRAM Statistics
 CHANNEL 0
 RQ ROW_BUFFER_HIT:     401179  ROW_BUFFER_MISS:     976284
 DBUS_CONGESTED:    1394294
 WQ ROW_BUFFER_HIT:     269710  ROW_BUFFER_MISS:     625168  FULL:          0

 AVG_CONGESTED_CYCLE: 6

CPU 0 Branch Prediction Accuracy: 99.8303% MPKI: 0.27836 Average ROB Occupancy at Mispredict: 176.211

Branch types
NOT_BRANCH: 41798512 83.597%
BRANCH_DIRECT_JUMP: 445215 0.89043%
BRANCH_INDIRECT: 50481 0.100962%
BRANCH_CONDITIONAL: 5868240 11.7365%
BRANCH_DIRECT_CALL: 758228 1.51646%
BRANCH_INDIRECT_CALL: 160494 0.320988%
BRANCH_RETURN: 918718 1.83744%
BRANCH_OTHER: 0 0%

