Initialize SIGNATURE TABLE
ST_SET: 1
ST_WAY: 256
ST_TAG_BIT: 16
ST_TAG_MASK: ffff

Initialize PATTERN TABLE
PT_SET: 512
PT_WAY: 4
SIG_DELTA_BIT: 7
C_SIG_BIT: 4
C_DELTA_BIT: 4

Initialize PREFETCH FILTER
FILTER_SET: 1024

*** ChampSim Multicore Out-of-Order Simulator ***

Warmup Instructions: 50000000
Simulation Instructions: 50000000
Number of CPUs: 1
LLC sets: 2048
LLC ways: 16
Off-chip DRAM Size: 4096 MB Channels: 1 Width: 64-bit Data Rate: 3200 MT/s

CPU 0 runs /home/ykhodke/ChampSim/dpc3_traces/server_036.champsimtrace.xz
CPU 0 L1D next line prefetcher
Heartbeat CPU 0 instructions: 10000000 cycles: 3459066 heartbeat IPC: 2.89095 cumulative IPC: 2.89095 (Simulation time: 0 hr 0 min 14 sec) 
Heartbeat CPU 0 instructions: 20000000 cycles: 6924961 heartbeat IPC: 2.88526 cumulative IPC: 2.8881 (Simulation time: 0 hr 0 min 28 sec) 
Heartbeat CPU 0 instructions: 30000003 cycles: 10433159 heartbeat IPC: 2.85047 cumulative IPC: 2.87545 (Simulation time: 0 hr 0 min 42 sec) 
Heartbeat CPU 0 instructions: 40000000 cycles: 13895688 heartbeat IPC: 2.88806 cumulative IPC: 2.87859 (Simulation time: 0 hr 0 min 57 sec) 
Heartbeat CPU 0 instructions: 50000002 cycles: 17357411 heartbeat IPC: 2.88874 cumulative IPC: 2.88061 (Simulation time: 0 hr 1 min 11 sec) 

Warmup complete CPU 0 instructions: 50000002 cycles: 17357411 (Simulation time: 0 hr 1 min 11 sec) 

Heartbeat CPU 0 instructions: 60000002 cycles: 28207125 heartbeat IPC: 0.921683 cumulative IPC: 0.921683 (Simulation time: 0 hr 1 min 21 sec) 
Heartbeat CPU 0 instructions: 70000001 cycles: 39002238 heartbeat IPC: 0.926345 cumulative IPC: 0.924008 (Simulation time: 0 hr 1 min 31 sec) 
Heartbeat CPU 0 instructions: 80000000 cycles: 49806475 heartbeat IPC: 0.925563 cumulative IPC: 0.924526 (Simulation time: 0 hr 1 min 41 sec) 
Heartbeat CPU 0 instructions: 90000002 cycles: 60602335 heartbeat IPC: 0.926281 cumulative IPC: 0.924964 (Simulation time: 0 hr 1 min 52 sec) 
Heartbeat CPU 0 instructions: 100000001 cycles: 71397083 heartbeat IPC: 0.926376 cumulative IPC: 0.925246 (Simulation time: 0 hr 2 min 2 sec) 
Finished CPU 0 instructions: 50000003 cycles: 54039673 cumulative IPC: 0.925246 (Simulation time: 0 hr 2 min 2 sec) 

ChampSim completed all CPUs

Region of Interest Statistics

CPU 0 cumulative IPC: 0.925246 instructions: 50000003 cycles: 54039673
L1D TOTAL     ACCESS:   24285910  HIT:   24223532  MISS:      62378
L1D LOAD      ACCESS:    8489057  HIT:    8454088  MISS:      34969
L1D RFO       ACCESS:    7438331  HIT:    7431064  MISS:       7267
L1D PREFETCH  ACCESS:    8358522  HIT:    8338380  MISS:      20142
L1D WRITEBACK ACCESS:          0  HIT:          0  MISS:          0
L1D PREFETCH  REQUESTED:    8489350  ISSUED:    8387929  USEFUL:       5506  USELESS:      14637
L1D AVERAGE MISS LATENCY: 16.9349 cycles
L1I TOTAL     ACCESS:    9062898  HIT:    5242106  MISS:    3820792
L1I LOAD      ACCESS:    9062898  HIT:    5242106  MISS:    3820792
L1I RFO       ACCESS:          0  HIT:          0  MISS:          0
L1I PREFETCH  ACCESS:          0  HIT:          0  MISS:          0
L1I WRITEBACK ACCESS:          0  HIT:          0  MISS:          0
L1I PREFETCH  REQUESTED:          0  ISSUED:          0  USEFUL:          0  USELESS:          0
L1I AVERAGE MISS LATENCY: 14.0797 cycles
L2C TOTAL     ACCESS:    7356655  HIT:    7354557  MISS:       2098
L2C LOAD      ACCESS:    3855599  HIT:    3854791  MISS:        808
L2C RFO       ACCESS:       7261  HIT:       7204  MISS:         57
L2C PREFETCH  ACCESS:    3478154  HIT:    3476936  MISS:       1218
L2C WRITEBACK ACCESS:      15641  HIT:      15626  MISS:         15
L2C PREFETCH  REQUESTED:    5570413  ISSUED:    5570413  USEFUL:        109  USELESS:        738
L2C AVERAGE MISS LATENCY: 105.551 cycles
LLC TOTAL     ACCESS:    1134873  HIT:    1132388  MISS:       2485
LLC LOAD      ACCESS:        804  HIT:        315  MISS:        489
LLC RFO       ACCESS:         57  HIT:         28  MISS:         29
LLC PREFETCH  ACCESS:    1133087  HIT:    1131125  MISS:       1962
LLC WRITEBACK ACCESS:        925  HIT:        920  MISS:          5
LLC PREFETCH  REQUESTED:          0  ISSUED:          0  USEFUL:        184  USELESS:        636
LLC AVERAGE MISS LATENCY: 190.2 cycles
Major fault: 0 Minor fault: 1926
CPU 0 L1D next line prefetcher final stats

DRAM Statistics
 CHANNEL 0
 RQ ROW_BUFFER_HIT:        468  ROW_BUFFER_MISS:       2012
 DBUS_CONGESTED:       1411
 WQ ROW_BUFFER_HIT:        356  ROW_BUFFER_MISS:       1225  FULL:          0

 AVG_CONGESTED_CYCLE: 6

CPU 0 Branch Prediction Accuracy: 99.8717% MPKI: 0.21174 Average ROB Occupancy at Mispredict: 149.07

Branch types
NOT_BRANCH: 41748421 83.4968%
BRANCH_DIRECT_JUMP: 468563 0.937126%
BRANCH_INDIRECT: 0 0%
BRANCH_CONDITIONAL: 5599749 11.1995%
BRANCH_DIRECT_CALL: 885105 1.77021%
BRANCH_INDIRECT_CALL: 206338 0.412676%
BRANCH_RETURN: 1091467 2.18293%
BRANCH_OTHER: 0 0%

