Initialize SIGNATURE TABLE
ST_SET: 1
ST_WAY: 256
ST_TAG_BIT: 16
ST_TAG_MASK: ffff

Initialize PATTERN TABLE
PT_SET: 512
PT_WAY: 4
SIG_DELTA_BIT: 7
C_SIG_BIT: 4
C_DELTA_BIT: 4

Initialize PREFETCH FILTER
FILTER_SET: 1024

*** ChampSim Multicore Out-of-Order Simulator ***

Warmup Instructions: 50000000
Simulation Instructions: 50000000
Number of CPUs: 1
LLC sets: 2048
LLC ways: 16
Off-chip DRAM Size: 4096 MB Channels: 1 Width: 64-bit Data Rate: 3200 MT/s

CPU 0 runs /home/ykhodke/ChampSim/dpc3_traces/605.mcf_s-665B.champsimtrace.xz
LHT KB: 126.25
SCC KB: 1.56
Total KB: 127.81
CPU 0 L1D next line prefetcher
Heartbeat CPU 0 instructions: 10000000 cycles: 4106273 heartbeat IPC: 2.4353 cumulative IPC: 2.4353 (Simulation time: 0 hr 0 min 15 sec) 
Heartbeat CPU 0 instructions: 20000000 cycles: 8221157 heartbeat IPC: 2.4302 cumulative IPC: 2.43275 (Simulation time: 0 hr 0 min 31 sec) 
Heartbeat CPU 0 instructions: 30000002 cycles: 12321101 heartbeat IPC: 2.43906 cumulative IPC: 2.43485 (Simulation time: 0 hr 0 min 46 sec) 
Heartbeat CPU 0 instructions: 40000000 cycles: 16424641 heartbeat IPC: 2.43692 cumulative IPC: 2.43537 (Simulation time: 0 hr 1 min 1 sec) 
Heartbeat CPU 0 instructions: 50000000 cycles: 20523509 heartbeat IPC: 2.4397 cumulative IPC: 2.43623 (Simulation time: 0 hr 1 min 16 sec) 

Warmup complete CPU 0 instructions: 50000004 cycles: 20523510 (Simulation time: 0 hr 1 min 16 sec) 

Heartbeat CPU 0 instructions: 60000003 cycles: 44566795 heartbeat IPC: 0.415917 cumulative IPC: 0.415917 (Simulation time: 0 hr 1 min 31 sec) 
Heartbeat CPU 0 instructions: 70000000 cycles: 68334193 heartbeat IPC: 0.420744 cumulative IPC: 0.418316 (Simulation time: 0 hr 1 min 45 sec) 
Heartbeat CPU 0 instructions: 80000001 cycles: 92347886 heartbeat IPC: 0.416429 cumulative IPC: 0.417685 (Simulation time: 0 hr 2 min 0 sec) 
Heartbeat CPU 0 instructions: 90000001 cycles: 116751597 heartbeat IPC: 0.409774 cumulative IPC: 0.415679 (Simulation time: 0 hr 2 min 15 sec) 
Heartbeat CPU 0 instructions: 100000000 cycles: 139454636 heartbeat IPC: 0.44047 cumulative IPC: 0.420411 (Simulation time: 0 hr 2 min 29 sec) 
Finished CPU 0 instructions: 50000000 cycles: 118931127 cumulative IPC: 0.420411 (Simulation time: 0 hr 2 min 29 sec) 

ChampSim completed all CPUs

Region of Interest Statistics

CPU 0 cumulative IPC: 0.420411 instructions: 50000000 cycles: 118931127
L1D TOTAL     ACCESS:   30411981  HIT:   27229242  MISS:    3182739
L1D LOAD      ACCESS:   12756100  HIT:   11151262  MISS:    1604838
L1D RFO       ACCESS:    5404445  HIT:    5206492  MISS:     197953
L1D PREFETCH  ACCESS:   12251436  HIT:   10871488  MISS:    1379948
L1D WRITEBACK ACCESS:          0  HIT:          0  MISS:          0
L1D PREFETCH  REQUESTED:   12901319  ISSUED:   12788730  USEFUL:     246431  USELESS:    1133528
L1D AVERAGE MISS LATENCY: 67.6902 cycles
L1I TOTAL     ACCESS:   15610397  HIT:   15610397  MISS:          0
L1I LOAD      ACCESS:    9392464  HIT:    9392464  MISS:          0
L1I RFO       ACCESS:          0  HIT:          0  MISS:          0
L1I PREFETCH  ACCESS:    6217933  HIT:    6217933  MISS:          0
L1I WRITEBACK ACCESS:          0  HIT:          0  MISS:          0
L1I PREFETCH  REQUESTED:    7536573  ISSUED:    7536573  USEFUL:          0  USELESS:          0
L1I AVERAGE MISS LATENCY: -nan cycles
L2C TOTAL     ACCESS:    3907879  HIT:    1797990  MISS:    2109889
L2C LOAD      ACCESS:    1410339  HIT:     535035  MISS:     875304
L2C RFO       ACCESS:     197883  HIT:      76663  MISS:     121220
L2C PREFETCH  ACCESS:    2014102  HIT:     901040  MISS:    1113062
L2C WRITEBACK ACCESS:     285555  HIT:     285252  MISS:        303
L2C PREFETCH  REQUESTED:    2331186  ISSUED:    2331186  USEFUL:      91369  USELESS:    1021273
L2C AVERAGE MISS LATENCY: 91.7575 cycles
LLC TOTAL     ACCESS:    2940043  HIT:    1974975  MISS:     965068
LLC LOAD      ACCESS:     875292  HIT:     586956  MISS:     288336
LLC RFO       ACCESS:     121217  HIT:     117869  MISS:       3348
LLC PREFETCH  ACCESS:    1766092  HIT:    1093807  MISS:     672285
LLC WRITEBACK ACCESS:     177442  HIT:     176343  MISS:       1099
LLC PREFETCH  REQUESTED:          0  ISSUED:          0  USEFUL:     102528  USELESS:     569383
LLC AVERAGE MISS LATENCY: 188.478 cycles
Major fault: 0 Minor fault: 15068
CPU 0 L1D next line prefetcher final stats

DRAM Statistics
 CHANNEL 0
 RQ ROW_BUFFER_HIT:     136342  ROW_BUFFER_MISS:     827592
 DBUS_CONGESTED:     328326
 WQ ROW_BUFFER_HIT:       4781  ROW_BUFFER_MISS:      10440  FULL:          0

 AVG_CONGESTED_CYCLE: 5

CPU 0 Branch Prediction Accuracy: 93.133% MPKI: 17.08 Average ROB Occupancy at Mispredict: 26.673

Branch types
NOT_BRANCH: 37563287 75.1266%
BRANCH_DIRECT_JUMP: 1317761 2.63552%
BRANCH_INDIRECT: 0 0%
BRANCH_CONDITIONAL: 8419917 16.8398%
BRANCH_DIRECT_CALL: 1274782 2.54956%
BRANCH_INDIRECT_CALL: 74550 0.1491%
BRANCH_RETURN: 1349334 2.69867%
BRANCH_OTHER: 0 0%

