Initialize SIGNATURE TABLE
ST_SET: 1
ST_WAY: 256
ST_TAG_BIT: 16
ST_TAG_MASK: ffff

Initialize PATTERN TABLE
PT_SET: 512
PT_WAY: 4
SIG_DELTA_BIT: 7
C_SIG_BIT: 4
C_DELTA_BIT: 4

Initialize PREFETCH FILTER
FILTER_SET: 1024

*** ChampSim Multicore Out-of-Order Simulator ***

Warmup Instructions: 50000000
Simulation Instructions: 50000000
Number of CPUs: 1
LLC sets: 2048
LLC ways: 16
Off-chip DRAM Size: 4096 MB Channels: 1 Width: 64-bit Data Rate: 3200 MT/s

CPU 0 runs /home/ykhodke/ChampSim/dpc3_traces/621.wrf_s-575B.champsimtrace.xz
LHT KB: 126.25
SCC KB: 1.56
Total KB: 127.81
CPU 0 L1D next line prefetcher
Heartbeat CPU 0 instructions: 10000000 cycles: 4328661 heartbeat IPC: 2.31018 cumulative IPC: 2.31018 (Simulation time: 0 hr 0 min 13 sec) 
Heartbeat CPU 0 instructions: 20000002 cycles: 8673312 heartbeat IPC: 2.30168 cumulative IPC: 2.30592 (Simulation time: 0 hr 0 min 25 sec) 
Heartbeat CPU 0 instructions: 30000000 cycles: 13029334 heartbeat IPC: 2.29567 cumulative IPC: 2.3025 (Simulation time: 0 hr 0 min 37 sec) 
Heartbeat CPU 0 instructions: 40000002 cycles: 17381178 heartbeat IPC: 2.29788 cumulative IPC: 2.30134 (Simulation time: 0 hr 0 min 50 sec) 
Heartbeat CPU 0 instructions: 50000002 cycles: 21730892 heartbeat IPC: 2.299 cumulative IPC: 2.30087 (Simulation time: 0 hr 1 min 2 sec) 

Warmup complete CPU 0 instructions: 50000002 cycles: 21730892 (Simulation time: 0 hr 1 min 2 sec) 

Heartbeat CPU 0 instructions: 60000003 cycles: 30397613 heartbeat IPC: 1.15384 cumulative IPC: 1.15384 (Simulation time: 0 hr 1 min 16 sec) 
Heartbeat CPU 0 instructions: 70000000 cycles: 39037949 heartbeat IPC: 1.15736 cumulative IPC: 1.1556 (Simulation time: 0 hr 1 min 30 sec) 
Heartbeat CPU 0 instructions: 80000000 cycles: 47624856 heartbeat IPC: 1.16456 cumulative IPC: 1.15857 (Simulation time: 0 hr 1 min 44 sec) 
Heartbeat CPU 0 instructions: 90000000 cycles: 56267902 heartbeat IPC: 1.157 cumulative IPC: 1.15818 (Simulation time: 0 hr 1 min 57 sec) 
Heartbeat CPU 0 instructions: 100000001 cycles: 64878111 heartbeat IPC: 1.16141 cumulative IPC: 1.15882 (Simulation time: 0 hr 2 min 11 sec) 
Finished CPU 0 instructions: 50000000 cycles: 43147226 cumulative IPC: 1.15882 (Simulation time: 0 hr 2 min 11 sec) 

ChampSim completed all CPUs

Region of Interest Statistics

CPU 0 cumulative IPC: 1.15882 instructions: 50000000 cycles: 43147226
L1D TOTAL     ACCESS:   15293472  HIT:   15291923  MISS:       1549
L1D LOAD      ACCESS:    6687004  HIT:    6686715  MISS:        289
L1D RFO       ACCESS:    1925598  HIT:    1924843  MISS:        755
L1D PREFETCH  ACCESS:    6680870  HIT:    6680365  MISS:        505
L1D WRITEBACK ACCESS:          0  HIT:          0  MISS:          0
L1D PREFETCH  REQUESTED:    6687079  ISSUED:    6682279  USEFUL:        422  USELESS:         80
L1D AVERAGE MISS LATENCY: 132.602 cycles
L1I TOTAL     ACCESS:   14088364  HIT:   14088083  MISS:        281
L1I LOAD      ACCESS:   10572374  HIT:   10572330  MISS:         44
L1I RFO       ACCESS:          0  HIT:          0  MISS:          0
L1I PREFETCH  ACCESS:    3515990  HIT:    3515753  MISS:        237
L1I WRITEBACK ACCESS:          0  HIT:          0  MISS:          0
L1I PREFETCH  REQUESTED:    3640014  ISSUED:    3640014  USEFUL:        237  USELESS:          0
L1I AVERAGE MISS LATENCY: 16.0427 cycles
L2C TOTAL     ACCESS:       3191  HIT:       1722  MISS:       1469
L2C LOAD      ACCESS:        219  HIT:         59  MISS:        160
L2C RFO       ACCESS:        755  HIT:         28  MISS:        727
L2C PREFETCH  ACCESS:       1169  HIT:        587  MISS:        582
L2C WRITEBACK ACCESS:       1048  HIT:       1048  MISS:          0
L2C PREFETCH  REQUESTED:       2526  ISSUED:       2526  USEFUL:         25  USELESS:          0
L2C AVERAGE MISS LATENCY: 137.765 cycles
LLC TOTAL     ACCESS:       2953  HIT:       1363  MISS:       1590
LLC LOAD      ACCESS:        159  HIT:         44  MISS:        115
LLC RFO       ACCESS:        727  HIT:         14  MISS:        713
LLC PREFETCH  ACCESS:       2067  HIT:       1305  MISS:        762
LLC WRITEBACK ACCESS:          0  HIT:          0  MISS:          0
LLC PREFETCH  REQUESTED:          0  ISSUED:          0  USEFUL:         58  USELESS:          0
LLC AVERAGE MISS LATENCY: 155.242 cycles
Major fault: 0 Minor fault: 197
CPU 0 L1D next line prefetcher final stats

DRAM Statistics
 CHANNEL 0
 RQ ROW_BUFFER_HIT:        481  ROW_BUFFER_MISS:       1109
 DBUS_CONGESTED:        576
 WQ ROW_BUFFER_HIT:          0  ROW_BUFFER_MISS:          0  FULL:          0

 AVG_CONGESTED_CYCLE: 5

CPU 0 Branch Prediction Accuracy: 99.6866% MPKI: 0.41812 Average ROB Occupancy at Mispredict: 263.286

Branch types
NOT_BRANCH: 43328386 86.6568%
BRANCH_DIRECT_JUMP: 484649 0.969298%
BRANCH_INDIRECT: 0 0%
BRANCH_CONDITIONAL: 5043854 10.0877%
BRANCH_DIRECT_CALL: 571556 1.14311%
BRANCH_INDIRECT_CALL: 0 0%
BRANCH_RETURN: 571556 1.14311%
BRANCH_OTHER: 0 0%

