Initialize SIGNATURE TABLE
ST_SET: 1
ST_WAY: 256
ST_TAG_BIT: 16
ST_TAG_MASK: ffff

Initialize PATTERN TABLE
PT_SET: 512
PT_WAY: 4
SIG_DELTA_BIT: 7
C_SIG_BIT: 4
C_DELTA_BIT: 4

Initialize PREFETCH FILTER
FILTER_SET: 1024

*** ChampSim Multicore Out-of-Order Simulator ***

Warmup Instructions: 50000000
Simulation Instructions: 50000000
Number of CPUs: 1
LLC sets: 2048
LLC ways: 16
Off-chip DRAM Size: 4096 MB Channels: 1 Width: 64-bit Data Rate: 3200 MT/s

CPU 0 runs /home/ykhodke/ChampSim/dpc3_traces/631.deepsjeng_s-928B.champsimtrace.xz
LHT KB: 126.25
SCC KB: 1.56
Total KB: 127.81
CPU 0 L1D next line prefetcher
Heartbeat CPU 0 instructions: 10000000 cycles: 3950169 heartbeat IPC: 2.53154 cumulative IPC: 2.53154 (Simulation time: 0 hr 0 min 14 sec) 
Heartbeat CPU 0 instructions: 20000000 cycles: 8025236 heartbeat IPC: 2.45395 cumulative IPC: 2.49214 (Simulation time: 0 hr 0 min 29 sec) 
Heartbeat CPU 0 instructions: 30000000 cycles: 11975532 heartbeat IPC: 2.53146 cumulative IPC: 2.50511 (Simulation time: 0 hr 0 min 43 sec) 
Heartbeat CPU 0 instructions: 40000001 cycles: 15927803 heartbeat IPC: 2.53019 cumulative IPC: 2.51133 (Simulation time: 0 hr 0 min 58 sec) 
Heartbeat CPU 0 instructions: 50000001 cycles: 19877837 heartbeat IPC: 2.53162 cumulative IPC: 2.51536 (Simulation time: 0 hr 1 min 13 sec) 

Warmup complete CPU 0 instructions: 50000001 cycles: 19877837 (Simulation time: 0 hr 1 min 13 sec) 

Heartbeat CPU 0 instructions: 60000001 cycles: 28269720 heartbeat IPC: 1.19163 cumulative IPC: 1.19163 (Simulation time: 0 hr 1 min 26 sec) 
Heartbeat CPU 0 instructions: 70000001 cycles: 36494000 heartbeat IPC: 1.21591 cumulative IPC: 1.20365 (Simulation time: 0 hr 1 min 38 sec) 
Heartbeat CPU 0 instructions: 80000002 cycles: 44853583 heartbeat IPC: 1.19623 cumulative IPC: 1.20117 (Simulation time: 0 hr 1 min 52 sec) 
Heartbeat CPU 0 instructions: 90000001 cycles: 53110654 heartbeat IPC: 1.21108 cumulative IPC: 1.20363 (Simulation time: 0 hr 2 min 5 sec) 
Heartbeat CPU 0 instructions: 100000003 cycles: 61607485 heartbeat IPC: 1.17691 cumulative IPC: 1.19819 (Simulation time: 0 hr 2 min 18 sec) 
Finished CPU 0 instructions: 50000002 cycles: 41729648 cumulative IPC: 1.19819 (Simulation time: 0 hr 2 min 18 sec) 

ChampSim completed all CPUs

Region of Interest Statistics

CPU 0 cumulative IPC: 1.19819 instructions: 50000002 cycles: 41729648
L1D TOTAL     ACCESS:   21886572  HIT:   21827083  MISS:      59489
L1D LOAD      ACCESS:    8237055  HIT:    8213525  MISS:      23530
L1D RFO       ACCESS:    5544147  HIT:    5532439  MISS:      11708
L1D PREFETCH  ACCESS:    8105370  HIT:    8081119  MISS:      24251
L1D WRITEBACK ACCESS:          0  HIT:          0  MISS:          0
L1D PREFETCH  REQUESTED:    8241582  ISSUED:    8147517  USEFUL:       7099  USELESS:      17173
L1D AVERAGE MISS LATENCY: 70.7845 cycles
L1I TOTAL     ACCESS:   19679529  HIT:   19594428  MISS:      85101
L1I LOAD      ACCESS:    8588188  HIT:    8581739  MISS:       6449
L1I RFO       ACCESS:          0  HIT:          0  MISS:          0
L1I PREFETCH  ACCESS:   11091341  HIT:   11012689  MISS:      78652
L1I WRITEBACK ACCESS:          0  HIT:          0  MISS:          0
L1I PREFETCH  REQUESTED:   12251087  ISSUED:   12251087  USEFUL:      66639  USELESS:      12011
L1I AVERAGE MISS LATENCY: 13.7349 cycles
L2C TOTAL     ACCESS:     215539  HIT:     191488  MISS:      24051
L2C LOAD      ACCESS:      24420  HIT:      11128  MISS:      13292
L2C RFO       ACCESS:      11677  HIT:      11405  MISS:        272
L2C PREFETCH  ACCESS:     154593  HIT:     144142  MISS:      10451
L2C WRITEBACK ACCESS:      24849  HIT:      24813  MISS:         36
L2C PREFETCH  REQUESTED:      77967  ISSUED:      77967  USEFUL:        144  USELESS:      11475
L2C AVERAGE MISS LATENCY: 141.409 cycles
LLC TOTAL     ACCESS:      50190  HIT:      17042  MISS:      33148
LLC LOAD      ACCESS:      13292  HIT:        429  MISS:      12863
LLC RFO       ACCESS:        272  HIT:        183  MISS:         89
LLC PREFETCH  ACCESS:      26891  HIT:       6806  MISS:      20085
LLC WRITEBACK ACCESS:       9735  HIT:       9624  MISS:        111
LLC PREFETCH  REQUESTED:          0  ISSUED:          0  USEFUL:        223  USELESS:      20387
LLC AVERAGE MISS LATENCY: 122.777 cycles
Major fault: 0 Minor fault: 17348
CPU 0 L1D next line prefetcher final stats

DRAM Statistics
 CHANNEL 0
 RQ ROW_BUFFER_HIT:      18607  ROW_BUFFER_MISS:      14430
 DBUS_CONGESTED:      12736
 WQ ROW_BUFFER_HIT:        173  ROW_BUFFER_MISS:       9327  FULL:          0

 AVG_CONGESTED_CYCLE: 4

CPU 0 Branch Prediction Accuracy: 97.157% MPKI: 4.1846 Average ROB Occupancy at Mispredict: 87.424

Branch types
NOT_BRANCH: 42640301 85.2806%
BRANCH_DIRECT_JUMP: 428022 0.856044%
BRANCH_INDIRECT: 37836 0.075672%
BRANCH_CONDITIONAL: 4816570 9.63314%
BRANCH_DIRECT_CALL: 1038476 2.07695%
BRANCH_INDIRECT_CALL: 0 0%
BRANCH_RETURN: 1038476 2.07695%
BRANCH_OTHER: 0 0%

