Initialize SIGNATURE TABLE
ST_SET: 1
ST_WAY: 256
ST_TAG_BIT: 16
ST_TAG_MASK: ffff

Initialize PATTERN TABLE
PT_SET: 512
PT_WAY: 4
SIG_DELTA_BIT: 7
C_SIG_BIT: 4
C_DELTA_BIT: 4

Initialize PREFETCH FILTER
FILTER_SET: 1024

*** ChampSim Multicore Out-of-Order Simulator ***

Warmup Instructions: 50000000
Simulation Instructions: 50000000
Number of CPUs: 1
LLC sets: 2048
LLC ways: 16
Off-chip DRAM Size: 4096 MB Channels: 1 Width: 64-bit Data Rate: 3200 MT/s

CPU 0 runs /home/ykhodke/ChampSim/dpc3_traces/client_001.champsimtrace.xz
LHT KB: 126.25
SCC KB: 1.56
Total KB: 127.81
CPU 0 L1D next line prefetcher
Heartbeat CPU 0 instructions: 10000003 cycles: 3410504 heartbeat IPC: 2.93212 cumulative IPC: 2.93212 (Simulation time: 0 hr 0 min 14 sec) 
Heartbeat CPU 0 instructions: 20000001 cycles: 7118954 heartbeat IPC: 2.69654 cumulative IPC: 2.8094 (Simulation time: 0 hr 0 min 28 sec) 
Heartbeat CPU 0 instructions: 30000001 cycles: 10481749 heartbeat IPC: 2.97372 cumulative IPC: 2.86212 (Simulation time: 0 hr 0 min 41 sec) 
Heartbeat CPU 0 instructions: 40000003 cycles: 14351298 heartbeat IPC: 2.58428 cumulative IPC: 2.7872 (Simulation time: 0 hr 0 min 56 sec) 
Heartbeat CPU 0 instructions: 50000003 cycles: 17648299 heartbeat IPC: 3.03306 cumulative IPC: 2.83313 (Simulation time: 0 hr 1 min 9 sec) 

Warmup complete CPU 0 instructions: 50000003 cycles: 17648299 (Simulation time: 0 hr 1 min 9 sec) 

Heartbeat CPU 0 instructions: 60000000 cycles: 26693950 heartbeat IPC: 1.1055 cumulative IPC: 1.1055 (Simulation time: 0 hr 1 min 24 sec) 
Heartbeat CPU 0 instructions: 70000000 cycles: 33000084 heartbeat IPC: 1.58576 cumulative IPC: 1.30278 (Simulation time: 0 hr 1 min 36 sec) 
Heartbeat CPU 0 instructions: 80000002 cycles: 42327128 heartbeat IPC: 1.07215 cumulative IPC: 1.21562 (Simulation time: 0 hr 1 min 52 sec) 
Heartbeat CPU 0 instructions: 90000000 cycles: 48492295 heartbeat IPC: 1.62202 cumulative IPC: 1.29685 (Simulation time: 0 hr 2 min 5 sec) 
Heartbeat CPU 0 instructions: 100000002 cycles: 57350865 heartbeat IPC: 1.12885 cumulative IPC: 1.25936 (Simulation time: 0 hr 2 min 18 sec) 
Finished CPU 0 instructions: 50000003 cycles: 39702567 cumulative IPC: 1.25936 (Simulation time: 0 hr 2 min 18 sec) 

ChampSim completed all CPUs

Region of Interest Statistics

CPU 0 cumulative IPC: 1.25936 instructions: 50000003 cycles: 39702567
L1D TOTAL     ACCESS:   21239418  HIT:   20402985  MISS:     836433
L1D LOAD      ACCESS:    8821113  HIT:    8426128  MISS:     394985
L1D RFO       ACCESS:    4040969  HIT:    3981917  MISS:      59052
L1D PREFETCH  ACCESS:    8377336  HIT:    7994940  MISS:     382396
L1D WRITEBACK ACCESS:          0  HIT:          0  MISS:          0
L1D PREFETCH  REQUESTED:    8866522  ISSUED:    8556841  USEFUL:     129406  USELESS:     252964
L1D AVERAGE MISS LATENCY: 47.6491 cycles
L1I TOTAL     ACCESS:   15395757  HIT:   14970115  MISS:     425642
L1I LOAD      ACCESS:    8919987  HIT:    8894446  MISS:      25541
L1I RFO       ACCESS:          0  HIT:          0  MISS:          0
L1I PREFETCH  ACCESS:    6475770  HIT:    6075669  MISS:     400101
L1I WRITEBACK ACCESS:          0  HIT:          0  MISS:          0
L1I PREFETCH  REQUESTED:    7209393  ISSUED:    7209384  USEFUL:     276379  USELESS:     123724
L1I AVERAGE MISS LATENCY: 20.8231 cycles
L2C TOTAL     ACCESS:    1944908  HIT:    1634460  MISS:     310448
L2C LOAD      ACCESS:     379916  HIT:     268056  MISS:     111860
L2C RFO       ACCESS:      58296  HIT:      21352  MISS:      36944
L2C PREFETCH  ACCESS:    1317098  HIT:    1155780  MISS:     161318
L2C WRITEBACK ACCESS:     189598  HIT:     189272  MISS:        326
L2C PREFETCH  REQUESTED:    1611288  ISSUED:    1603354  USEFUL:      13831  USELESS:     146360
L2C AVERAGE MISS LATENCY: 104.238 cycles
LLC TOTAL     ACCESS:     840296  HIT:     642406  MISS:     197890
LLC LOAD      ACCESS:     111537  HIT:      70550  MISS:      40987
LLC RFO       ACCESS:      36943  HIT:       8859  MISS:      28084
LLC PREFETCH  ACCESS:     584595  HIT:     456511  MISS:     128084
LLC WRITEBACK ACCESS:     107221  HIT:     106486  MISS:        735
LLC PREFETCH  REQUESTED:          0  ISSUED:          0  USEFUL:      28739  USELESS:     101031
LLC AVERAGE MISS LATENCY: 188.85 cycles
Major fault: 0 Minor fault: 3442
CPU 0 L1D next line prefetcher final stats

DRAM Statistics
 CHANNEL 0
 RQ ROW_BUFFER_HIT:      48449  ROW_BUFFER_MISS:     148699
 DBUS_CONGESTED:     119576
 WQ ROW_BUFFER_HIT:      15451  ROW_BUFFER_MISS:      65840  FULL:          0

 AVG_CONGESTED_CYCLE: 5

CPU 0 Branch Prediction Accuracy: 97.9037% MPKI: 3.63418 Average ROB Occupancy at Mispredict: 86.845

Branch types
NOT_BRANCH: 41331383 82.6628%
BRANCH_DIRECT_JUMP: 455615 0.91123%
BRANCH_INDIRECT: 20390 0.04078%
BRANCH_CONDITIONAL: 6745374 13.4907%
BRANCH_DIRECT_CALL: 494532 0.989064%
BRANCH_INDIRECT_CALL: 228815 0.45763%
BRANCH_RETURN: 723560 1.44712%
BRANCH_OTHER: 0 0%

