Initialize SIGNATURE TABLE
ST_SET: 1
ST_WAY: 256
ST_TAG_BIT: 16
ST_TAG_MASK: ffff

Initialize PATTERN TABLE
PT_SET: 512
PT_WAY: 4
SIG_DELTA_BIT: 7
C_SIG_BIT: 4
C_DELTA_BIT: 4

Initialize PREFETCH FILTER
FILTER_SET: 1024

*** ChampSim Multicore Out-of-Order Simulator ***

Warmup Instructions: 50000000
Simulation Instructions: 50000000
Number of CPUs: 1
LLC sets: 2048
LLC ways: 16
Off-chip DRAM Size: 4096 MB Channels: 1 Width: 64-bit Data Rate: 3200 MT/s

CPU 0 runs /home/ykhodke/ChampSim/dpc3_traces/client_004.champsimtrace.xz
LHT KB: 126.25
SCC KB: 1.56
Total KB: 127.81
CPU 0 L1D next line prefetcher
Heartbeat CPU 0 instructions: 10000000 cycles: 3593226 heartbeat IPC: 2.78301 cumulative IPC: 2.78301 (Simulation time: 0 hr 0 min 14 sec) 
Heartbeat CPU 0 instructions: 20000003 cycles: 7058013 heartbeat IPC: 2.88618 cumulative IPC: 2.83366 (Simulation time: 0 hr 0 min 28 sec) 
Heartbeat CPU 0 instructions: 30000000 cycles: 10649563 heartbeat IPC: 2.78431 cumulative IPC: 2.81702 (Simulation time: 0 hr 0 min 42 sec) 
Heartbeat CPU 0 instructions: 40000003 cycles: 14330522 heartbeat IPC: 2.71668 cumulative IPC: 2.79125 (Simulation time: 0 hr 0 min 57 sec) 
Heartbeat CPU 0 instructions: 50000001 cycles: 17849086 heartbeat IPC: 2.84207 cumulative IPC: 2.80126 (Simulation time: 0 hr 1 min 12 sec) 

Warmup complete CPU 0 instructions: 50000001 cycles: 17849086 (Simulation time: 0 hr 1 min 12 sec) 

Heartbeat CPU 0 instructions: 60000002 cycles: 25541094 heartbeat IPC: 1.30005 cumulative IPC: 1.30005 (Simulation time: 0 hr 1 min 25 sec) 
Heartbeat CPU 0 instructions: 70000001 cycles: 33266583 heartbeat IPC: 1.29442 cumulative IPC: 1.29723 (Simulation time: 0 hr 1 min 40 sec) 
Heartbeat CPU 0 instructions: 80000002 cycles: 41948446 heartbeat IPC: 1.15183 cumulative IPC: 1.24485 (Simulation time: 0 hr 1 min 54 sec) 
Heartbeat CPU 0 instructions: 90000000 cycles: 49972352 heartbeat IPC: 1.24628 cumulative IPC: 1.2452 (Simulation time: 0 hr 2 min 8 sec) 
Heartbeat CPU 0 instructions: 100000001 cycles: 57819955 heartbeat IPC: 1.27427 cumulative IPC: 1.25091 (Simulation time: 0 hr 2 min 22 sec) 
Finished CPU 0 instructions: 50000000 cycles: 39970869 cumulative IPC: 1.25091 (Simulation time: 0 hr 2 min 22 sec) 

ChampSim completed all CPUs

Region of Interest Statistics

CPU 0 cumulative IPC: 1.25091 instructions: 50000000 cycles: 39970869
L1D TOTAL     ACCESS:   21923936  HIT:   21035016  MISS:     888920
L1D LOAD      ACCESS:    8706920  HIT:    8310668  MISS:     396252
L1D RFO       ACCESS:    4805766  HIT:    4684172  MISS:     121594
L1D PREFETCH  ACCESS:    8411250  HIT:    8040176  MISS:     371074
L1D WRITEBACK ACCESS:          0  HIT:          0  MISS:          0
L1D PREFETCH  REQUESTED:    8747581  ISSUED:    8587930  USEFUL:     132600  USELESS:     238482
L1D AVERAGE MISS LATENCY: 30.8642 cycles
L1I TOTAL     ACCESS:   19888919  HIT:   18335105  MISS:    1553814
L1I LOAD      ACCESS:    9398498  HIT:    9257298  MISS:     141200
L1I RFO       ACCESS:          0  HIT:          0  MISS:          0
L1I PREFETCH  ACCESS:   10490421  HIT:    9077807  MISS:    1412614
L1I WRITEBACK ACCESS:          0  HIT:          0  MISS:          0
L1I PREFETCH  REQUESTED:   12764682  ISSUED:   12764682  USEFUL:     554243  USELESS:     858346
L1I AVERAGE MISS LATENCY: 21.0372 cycles
L2C TOTAL     ACCESS:    3543054  HIT:    3202511  MISS:     340543
L2C LOAD      ACCESS:     413217  HIT:     359280  MISS:      53937
L2C RFO       ACCESS:     117432  HIT:      42901  MISS:      74531
L2C PREFETCH  ACCESS:    2790395  HIT:    2579465  MISS:     210930
L2C WRITEBACK ACCESS:     222010  HIT:     220865  MISS:       1145
L2C PREFETCH  REQUESTED:    1804230  ISSUED:    1803806  USEFUL:      24610  USELESS:     184381
L2C AVERAGE MISS LATENCY: 87.0584 cycles
LLC TOTAL     ACCESS:     740215  HIT:     597138  MISS:     143077
LLC LOAD      ACCESS:      53929  HIT:      39442  MISS:      14487
LLC RFO       ACCESS:      74530  HIT:      42267  MISS:      32263
LLC PREFETCH  ACCESS:     506429  HIT:     410219  MISS:      96210
LLC WRITEBACK ACCESS:     105327  HIT:     105210  MISS:        117
LLC PREFETCH  REQUESTED:          0  ISSUED:          0  USEFUL:      14369  USELESS:      78785
LLC AVERAGE MISS LATENCY: 185.161 cycles
Major fault: 0 Minor fault: 3989
CPU 0 L1D next line prefetcher final stats

DRAM Statistics
 CHANNEL 0
 RQ ROW_BUFFER_HIT:      37733  ROW_BUFFER_MISS:     105206
 DBUS_CONGESTED:      76250
 WQ ROW_BUFFER_HIT:       8423  ROW_BUFFER_MISS:      38040  FULL:          0

 AVG_CONGESTED_CYCLE: 6

CPU 0 Branch Prediction Accuracy: 94.1242% MPKI: 11.6089 Average ROB Occupancy at Mispredict: 56.766

Branch types
NOT_BRANCH: 40121080 80.2422%
BRANCH_DIRECT_JUMP: 644555 1.28911%
BRANCH_INDIRECT: 201946 0.403892%
BRANCH_CONDITIONAL: 7003557 14.0071%
BRANCH_DIRECT_CALL: 564821 1.12964%
BRANCH_INDIRECT_CALL: 445012 0.890024%
BRANCH_RETURN: 1018716 2.03743%
BRANCH_OTHER: 0 0%

