Initialize SIGNATURE TABLE
ST_SET: 1
ST_WAY: 256
ST_TAG_BIT: 16
ST_TAG_MASK: ffff

Initialize PATTERN TABLE
PT_SET: 512
PT_WAY: 4
SIG_DELTA_BIT: 7
C_SIG_BIT: 4
C_DELTA_BIT: 4

Initialize PREFETCH FILTER
FILTER_SET: 1024

*** ChampSim Multicore Out-of-Order Simulator ***

Warmup Instructions: 50000000
Simulation Instructions: 50000000
Number of CPUs: 1
LLC sets: 2048
LLC ways: 16
Off-chip DRAM Size: 4096 MB Channels: 1 Width: 64-bit Data Rate: 3200 MT/s

CPU 0 runs /home/ykhodke/ChampSim/dpc3_traces/server_016.champsimtrace.xz
LHT KB: 126.25
SCC KB: 1.56
Total KB: 127.81
CPU 0 L1D next line prefetcher
Heartbeat CPU 0 instructions: 10000000 cycles: 3498976 heartbeat IPC: 2.85798 cumulative IPC: 2.85798 (Simulation time: 0 hr 0 min 16 sec) 
Heartbeat CPU 0 instructions: 20000000 cycles: 6998295 heartbeat IPC: 2.8577 cumulative IPC: 2.85784 (Simulation time: 0 hr 0 min 32 sec) 
Heartbeat CPU 0 instructions: 30000001 cycles: 10493000 heartbeat IPC: 2.86147 cumulative IPC: 2.85905 (Simulation time: 0 hr 0 min 48 sec) 
Heartbeat CPU 0 instructions: 40000000 cycles: 13791622 heartbeat IPC: 3.03157 cumulative IPC: 2.90031 (Simulation time: 0 hr 0 min 57 sec) 
Heartbeat CPU 0 instructions: 50000002 cycles: 17027087 heartbeat IPC: 3.09075 cumulative IPC: 2.9365 (Simulation time: 0 hr 1 min 3 sec) 

Warmup complete CPU 0 instructions: 50000002 cycles: 17027087 (Simulation time: 0 hr 1 min 3 sec) 

Heartbeat CPU 0 instructions: 60000001 cycles: 24993682 heartbeat IPC: 1.25524 cumulative IPC: 1.25524 (Simulation time: 0 hr 1 min 10 sec) 
Heartbeat CPU 0 instructions: 70000001 cycles: 31908228 heartbeat IPC: 1.44623 cumulative IPC: 1.34398 (Simulation time: 0 hr 1 min 28 sec) 
Heartbeat CPU 0 instructions: 80000000 cycles: 38927366 heartbeat IPC: 1.42468 cumulative IPC: 1.36985 (Simulation time: 0 hr 1 min 46 sec) 
Heartbeat CPU 0 instructions: 90000000 cycles: 45713208 heartbeat IPC: 1.47366 cumulative IPC: 1.3944 (Simulation time: 0 hr 2 min 3 sec) 
Heartbeat CPU 0 instructions: 100000000 cycles: 52635087 heartbeat IPC: 1.44469 cumulative IPC: 1.40418 (Simulation time: 0 hr 2 min 20 sec) 
Finished CPU 0 instructions: 50000002 cycles: 35608001 cumulative IPC: 1.40418 (Simulation time: 0 hr 2 min 20 sec) 

ChampSim completed all CPUs

Region of Interest Statistics

CPU 0 cumulative IPC: 1.40418 instructions: 50000002 cycles: 35608001
L1D TOTAL     ACCESS:   18033782  HIT:   16766353  MISS:    1267429
L1D LOAD      ACCESS:    6559477  HIT:    5985551  MISS:     573926
L1D RFO       ACCESS:    5193391  HIT:    4971206  MISS:     222185
L1D PREFETCH  ACCESS:    6280914  HIT:    5809596  MISS:     471318
L1D WRITEBACK ACCESS:          0  HIT:          0  MISS:          0
L1D PREFETCH  REQUESTED:    6602531  ISSUED:    6499934  USEFUL:     112300  USELESS:     359036
L1D AVERAGE MISS LATENCY: 24.4071 cycles
L1I TOTAL     ACCESS:   22693448  HIT:   18619739  MISS:    4073709
L1I LOAD      ACCESS:    9792155  HIT:    9397116  MISS:     395039
L1I RFO       ACCESS:          0  HIT:          0  MISS:          0
L1I PREFETCH  ACCESS:   12901293  HIT:    9222623  MISS:    3678670
L1I WRITEBACK ACCESS:          0  HIT:          0  MISS:          0
L1I PREFETCH  REQUESTED:   14934420  ISSUED:   14934420  USEFUL:    1848350  USELESS:    1830275
L1I AVERAGE MISS LATENCY: 15.3256 cycles
L2C TOTAL     ACCESS:    7203235  HIT:    6607313  MISS:     595922
L2C LOAD      ACCESS:     592538  HIT:     473944  MISS:     118594
L2C RFO       ACCESS:     220488  HIT:     147882  MISS:      72606
L2C PREFETCH  ACCESS:    5961942  HIT:    5563285  MISS:     398657
L2C WRITEBACK ACCESS:     428267  HIT:     422202  MISS:       6065
L2C PREFETCH  REQUESTED:    4084788  ISSUED:    4080123  USEFUL:      17039  USELESS:     380947
L2C AVERAGE MISS LATENCY: 39.2609 cycles
LLC TOTAL     ACCESS:    1815954  HIT:    1780331  MISS:      35623
LLC LOAD      ACCESS:     118465  HIT:     114491  MISS:       3974
LLC RFO       ACCESS:      72602  HIT:      59061  MISS:      13541
LLC PREFETCH  ACCESS:    1496939  HIT:    1478974  MISS:      17965
LLC WRITEBACK ACCESS:     127948  HIT:     127805  MISS:        143
LLC PREFETCH  REQUESTED:          0  ISSUED:          0  USEFUL:       1538  USELESS:      16558
LLC AVERAGE MISS LATENCY: 178.317 cycles
Major fault: 0 Minor fault: 2383
CPU 0 L1D next line prefetcher final stats

DRAM Statistics
 CHANNEL 0
 RQ ROW_BUFFER_HIT:      11303  ROW_BUFFER_MISS:      24176
 DBUS_CONGESTED:      22864
 WQ ROW_BUFFER_HIT:       1548  ROW_BUFFER_MISS:      14507  FULL:          0

 AVG_CONGESTED_CYCLE: 6

CPU 0 Branch Prediction Accuracy: 99.7225% MPKI: 0.50376 Average ROB Occupancy at Mispredict: 125.313

Branch types
NOT_BRANCH: 40924002 81.848%
BRANCH_DIRECT_JUMP: 487045 0.97409%
BRANCH_INDIRECT: 169158 0.338316%
BRANCH_CONDITIONAL: 6640828 13.2817%
BRANCH_DIRECT_CALL: 755591 1.51118%
BRANCH_INDIRECT_CALL: 133962 0.267924%
BRANCH_RETURN: 889567 1.77913%
BRANCH_OTHER: 0 0%

