Initialize SIGNATURE TABLE
ST_SET: 1
ST_WAY: 256
ST_TAG_BIT: 16
ST_TAG_MASK: ffff

Initialize PATTERN TABLE
PT_SET: 512
PT_WAY: 4
SIG_DELTA_BIT: 7
C_SIG_BIT: 4
C_DELTA_BIT: 4

Initialize PREFETCH FILTER
FILTER_SET: 1024

*** ChampSim Multicore Out-of-Order Simulator ***

Warmup Instructions: 50000000
Simulation Instructions: 50000000
Number of CPUs: 1
LLC sets: 2048
LLC ways: 16
Off-chip DRAM Size: 4096 MB Channels: 1 Width: 64-bit Data Rate: 3200 MT/s

CPU 0 runs /home/ykhodke/ChampSim/dpc3_traces/server_025.champsimtrace.xz
LHT KB: 126.25
SCC KB: 1.56
Total KB: 127.81
CPU 0 L1D next line prefetcher
Heartbeat CPU 0 instructions: 10000003 cycles: 3528965 heartbeat IPC: 2.83369 cumulative IPC: 2.83369 (Simulation time: 0 hr 0 min 16 sec) 
Heartbeat CPU 0 instructions: 20000000 cycles: 7065022 heartbeat IPC: 2.82801 cumulative IPC: 2.83085 (Simulation time: 0 hr 0 min 33 sec) 
Heartbeat CPU 0 instructions: 30000001 cycles: 10592614 heartbeat IPC: 2.8348 cumulative IPC: 2.83216 (Simulation time: 0 hr 0 min 49 sec) 
Heartbeat CPU 0 instructions: 40000003 cycles: 14126819 heartbeat IPC: 2.82949 cumulative IPC: 2.83149 (Simulation time: 0 hr 1 min 6 sec) 
Heartbeat CPU 0 instructions: 50000001 cycles: 17658736 heartbeat IPC: 2.83132 cumulative IPC: 2.83146 (Simulation time: 0 hr 1 min 22 sec) 

Warmup complete CPU 0 instructions: 50000001 cycles: 17658736 (Simulation time: 0 hr 1 min 22 sec) 

Heartbeat CPU 0 instructions: 60000002 cycles: 24569725 heartbeat IPC: 1.44697 cumulative IPC: 1.44697 (Simulation time: 0 hr 1 min 40 sec) 
Heartbeat CPU 0 instructions: 70000000 cycles: 31576702 heartbeat IPC: 1.42715 cumulative IPC: 1.43699 (Simulation time: 0 hr 1 min 58 sec) 
Heartbeat CPU 0 instructions: 80000002 cycles: 38512265 heartbeat IPC: 1.44184 cumulative IPC: 1.43861 (Simulation time: 0 hr 2 min 16 sec) 
Heartbeat CPU 0 instructions: 90000001 cycles: 45074716 heartbeat IPC: 1.52382 cumulative IPC: 1.459 (Simulation time: 0 hr 2 min 33 sec) 
Heartbeat CPU 0 instructions: 100000003 cycles: 51344920 heartbeat IPC: 1.59484 cumulative IPC: 1.48429 (Simulation time: 0 hr 2 min 50 sec) 
Finished CPU 0 instructions: 50000002 cycles: 33686184 cumulative IPC: 1.48429 (Simulation time: 0 hr 2 min 50 sec) 

ChampSim completed all CPUs

Region of Interest Statistics

CPU 0 cumulative IPC: 1.48429 instructions: 50000002 cycles: 33686184
L1D TOTAL     ACCESS:   20087767  HIT:   18662280  MISS:    1425487
L1D LOAD      ACCESS:    7009358  HIT:    6390516  MISS:     618842
L1D RFO       ACCESS:    6380897  HIT:    6132828  MISS:     248069
L1D PREFETCH  ACCESS:    6697512  HIT:    6138936  MISS:     558576
L1D WRITEBACK ACCESS:          0  HIT:          0  MISS:          0
L1D PREFETCH  REQUESTED:    7049875  ISSUED:    6876673  USEFUL:     131176  USELESS:     427393
L1D AVERAGE MISS LATENCY: 23.4299 cycles
L1I TOTAL     ACCESS:   23828244  HIT:   19150843  MISS:    4677401
L1I LOAD      ACCESS:    9398620  HIT:    8952597  MISS:     446023
L1I RFO       ACCESS:          0  HIT:          0  MISS:          0
L1I PREFETCH  ACCESS:   14429624  HIT:   10198246  MISS:    4231378
L1I WRITEBACK ACCESS:          0  HIT:          0  MISS:          0
L1I PREFETCH  REQUESTED:   16758699  ISSUED:   16758699  USEFUL:    2170926  USELESS:    2060435
L1I AVERAGE MISS LATENCY: 15.56 cycles
L2C TOTAL     ACCESS:    8293639  HIT:    7617575  MISS:     676064
L2C LOAD      ACCESS:     674916  HIT:     557391  MISS:     117525
L2C RFO       ACCESS:     246616  HIT:     173667  MISS:      72949
L2C PREFETCH  ACCESS:    6875394  HIT:    6398386  MISS:     477008
L2C WRITEBACK ACCESS:     496713  HIT:     488131  MISS:       8582
L2C PREFETCH  REQUESTED:    4709729  ISSUED:    4701595  USEFUL:      14508  USELESS:     461609
L2C AVERAGE MISS LATENCY: 37.0398 cycles
LLC TOTAL     ACCESS:    2033957  HIT:    2006764  MISS:      27193
LLC LOAD      ACCESS:     117441  HIT:     114534  MISS:       2907
LLC RFO       ACCESS:      72943  HIT:      62171  MISS:      10772
LLC PREFETCH  ACCESS:    1710053  HIT:    1696704  MISS:      13349
LLC WRITEBACK ACCESS:     133520  HIT:     133355  MISS:        165
LLC PREFETCH  REQUESTED:          0  ISSUED:          0  USEFUL:        950  USELESS:      11825
LLC AVERAGE MISS LATENCY: 182.974 cycles
Major fault: 0 Minor fault: 2476
CPU 0 L1D next line prefetcher final stats

DRAM Statistics
 CHANNEL 0
 RQ ROW_BUFFER_HIT:       9021  ROW_BUFFER_MISS:      18005
 DBUS_CONGESTED:      18015
 WQ ROW_BUFFER_HIT:       1209  ROW_BUFFER_MISS:      11601  FULL:          0

 AVG_CONGESTED_CYCLE: 6

CPU 0 Branch Prediction Accuracy: 99.8142% MPKI: 0.34676 Average ROB Occupancy at Mispredict: 187.156

Branch types
NOT_BRANCH: 40668878 81.3378%
BRANCH_DIRECT_JUMP: 531700 1.0634%
BRANCH_INDIRECT: 199025 0.39805%
BRANCH_CONDITIONAL: 6211491 12.423%
BRANCH_DIRECT_CALL: 1010910 2.02182%
BRANCH_INDIRECT_CALL: 183501 0.367002%
BRANCH_RETURN: 1194415 2.38883%
BRANCH_OTHER: 0 0%

