Initialize SIGNATURE TABLE
ST_SET: 1
ST_WAY: 256
ST_TAG_BIT: 16
ST_TAG_MASK: ffff

Initialize PATTERN TABLE
PT_SET: 512
PT_WAY: 4
SIG_DELTA_BIT: 7
C_SIG_BIT: 4
C_DELTA_BIT: 4

Initialize PREFETCH FILTER
FILTER_SET: 1024

*** ChampSim Multicore Out-of-Order Simulator ***

Warmup Instructions: 50000000
Simulation Instructions: 50000000
Number of CPUs: 1
LLC sets: 2048
LLC ways: 16
Off-chip DRAM Size: 4096 MB Channels: 1 Width: 64-bit Data Rate: 3200 MT/s

CPU 0 runs /home/ykhodke/ChampSim/dpc3_traces/server_018.champsimtrace.xz
LHT KB: 126.25
SCC KB: 1.56
Total KB: 127.81
CPU 0 L1D next line prefetcher
Heartbeat CPU 0 instructions: 10000003 cycles: 3616782 heartbeat IPC: 2.76489 cumulative IPC: 2.76489 (Simulation time: 0 hr 0 min 16 sec) 
Heartbeat CPU 0 instructions: 20000001 cycles: 7238561 heartbeat IPC: 2.76107 cumulative IPC: 2.76298 (Simulation time: 0 hr 0 min 32 sec) 
Heartbeat CPU 0 instructions: 30000003 cycles: 10714512 heartbeat IPC: 2.87691 cumulative IPC: 2.79994 (Simulation time: 0 hr 0 min 47 sec) 
Heartbeat CPU 0 instructions: 40000000 cycles: 14226575 heartbeat IPC: 2.84733 cumulative IPC: 2.81164 (Simulation time: 0 hr 1 min 3 sec) 
Heartbeat CPU 0 instructions: 50000003 cycles: 17844293 heartbeat IPC: 2.76417 cumulative IPC: 2.80202 (Simulation time: 0 hr 1 min 19 sec) 

Warmup complete CPU 0 instructions: 50000003 cycles: 17844293 (Simulation time: 0 hr 1 min 19 sec) 

Heartbeat CPU 0 instructions: 60000000 cycles: 35917613 heartbeat IPC: 0.553302 cumulative IPC: 0.553302 (Simulation time: 0 hr 1 min 43 sec) 
Heartbeat CPU 0 instructions: 70000001 cycles: 54146017 heartbeat IPC: 0.548594 cumulative IPC: 0.550938 (Simulation time: 0 hr 2 min 6 sec) 
Heartbeat CPU 0 instructions: 80000000 cycles: 72159449 heartbeat IPC: 0.555141 cumulative IPC: 0.552332 (Simulation time: 0 hr 2 min 29 sec) 
Heartbeat CPU 0 instructions: 90000002 cycles: 90319052 heartbeat IPC: 0.550673 cumulative IPC: 0.551916 (Simulation time: 0 hr 2 min 52 sec) 
Heartbeat CPU 0 instructions: 100000001 cycles: 108508470 heartbeat IPC: 0.54977 cumulative IPC: 0.551486 (Simulation time: 0 hr 3 min 15 sec) 
Finished CPU 0 instructions: 50000002 cycles: 90664178 cumulative IPC: 0.551486 (Simulation time: 0 hr 3 min 15 sec) 

ChampSim completed all CPUs

Region of Interest Statistics

CPU 0 cumulative IPC: 0.551486 instructions: 50000002 cycles: 90664178
L1D TOTAL     ACCESS:   18650433  HIT:   16432569  MISS:    2217864
L1D LOAD      ACCESS:    7046613  HIT:    6306066  MISS:     740547
L1D RFO       ACCESS:    5853363  HIT:    4900804  MISS:     952559
L1D PREFETCH  ACCESS:    5750457  HIT:    5225699  MISS:     524758
L1D WRITEBACK ACCESS:          0  HIT:          0  MISS:          0
L1D PREFETCH  REQUESTED:    7089127  ISSUED:    6886149  USEFUL:     184903  USELESS:     339944
L1D AVERAGE MISS LATENCY: 175.601 cycles
L1I TOTAL     ACCESS:   24171119  HIT:   20942880  MISS:    3228239
L1I LOAD      ACCESS:   10075432  HIT:    9857425  MISS:     218007
L1I RFO       ACCESS:          0  HIT:          0  MISS:          0
L1I PREFETCH  ACCESS:   14095687  HIT:   11085455  MISS:    3010232
L1I WRITEBACK ACCESS:          0  HIT:          0  MISS:          0
L1I PREFETCH  REQUESTED:   15677356  ISSUED:   15677356  USEFUL:    2193865  USELESS:     816309
L1I AVERAGE MISS LATENCY: 15.9922 cycles
L2C TOTAL     ACCESS:    7792127  HIT:    5934854  MISS:    1857273
L2C LOAD      ACCESS:     533888  HIT:     267022  MISS:     266866
L2C RFO       ACCESS:     951757  HIT:      19864  MISS:     931893
L2C PREFETCH  ACCESS:    5136413  HIT:    4480166  MISS:     656247
L2C WRITEBACK ACCESS:    1170069  HIT:    1167802  MISS:       2267
L2C PREFETCH  REQUESTED:    3548015  ISSUED:    3547030  USEFUL:      23853  USELESS:     633167
L2C AVERAGE MISS LATENCY: 216.38 cycles
LLC TOTAL     ACCESS:    3865299  HIT:    2454202  MISS:    1411097
LLC LOAD      ACCESS:     266852  HIT:     165868  MISS:     100984
LLC RFO       ACCESS:     931886  HIT:     138564  MISS:     793322
LLC PREFETCH  ACCESS:    1565365  HIT:    1050310  MISS:     515055
LLC WRITEBACK ACCESS:    1101196  HIT:    1099460  MISS:       1736
LLC PREFETCH  REQUESTED:          0  ISSUED:          0  USEFUL:      26899  USELESS:     488208
LLC AVERAGE MISS LATENCY: 276.918 cycles
Major fault: 0 Minor fault: 22449
CPU 0 L1D next line prefetcher final stats

DRAM Statistics
 CHANNEL 0
 RQ ROW_BUFFER_HIT:     389670  ROW_BUFFER_MISS:    1019445
 DBUS_CONGESTED:    1395919
 WQ ROW_BUFFER_HIT:     279688  ROW_BUFFER_MISS:     613582  FULL:          0

 AVG_CONGESTED_CYCLE: 6

CPU 0 Branch Prediction Accuracy: 99.7114% MPKI: 0.47678 Average ROB Occupancy at Mispredict: 211.159

Branch types
NOT_BRANCH: 41741008 83.482%
BRANCH_DIRECT_JUMP: 458652 0.917304%
BRANCH_INDIRECT: 48282 0.096564%
BRANCH_CONDITIONAL: 5930881 11.8618%
BRANCH_DIRECT_CALL: 744230 1.48846%
BRANCH_INDIRECT_CALL: 166336 0.332672%
BRANCH_RETURN: 910589 1.82118%
BRANCH_OTHER: 0 0%

