Initialize SIGNATURE TABLE
ST_SET: 1
ST_WAY: 256
ST_TAG_BIT: 16
ST_TAG_MASK: ffff

Initialize PATTERN TABLE
PT_SET: 512
PT_WAY: 4
SIG_DELTA_BIT: 7
C_SIG_BIT: 4
C_DELTA_BIT: 4

Initialize PREFETCH FILTER
FILTER_SET: 1024

*** ChampSim Multicore Out-of-Order Simulator ***

Warmup Instructions: 50000000
Simulation Instructions: 50000000
Number of CPUs: 1
LLC sets: 2048
LLC ways: 16
Off-chip DRAM Size: 4096 MB Channels: 1 Width: 64-bit Data Rate: 3200 MT/s

CPU 0 runs /home/ykhodke/ChampSim/dpc3_traces/server_003.champsimtrace.xz
LHT KB: 126.25
SCC KB: 1.56
Total KB: 127.81
CPU 0 L1D next line prefetcher
Heartbeat CPU 0 instructions: 10000002 cycles: 3227880 heartbeat IPC: 3.09801 cumulative IPC: 3.09801 (Simulation time: 0 hr 0 min 14 sec) 
Heartbeat CPU 0 instructions: 20000000 cycles: 6549891 heartbeat IPC: 3.01022 cumulative IPC: 3.05349 (Simulation time: 0 hr 0 min 29 sec) 
Heartbeat CPU 0 instructions: 30000000 cycles: 9764641 heartbeat IPC: 3.11066 cumulative IPC: 3.07231 (Simulation time: 0 hr 0 min 43 sec) 
Heartbeat CPU 0 instructions: 40000001 cycles: 13183073 heartbeat IPC: 2.92532 cumulative IPC: 3.03419 (Simulation time: 0 hr 0 min 59 sec) 
Heartbeat CPU 0 instructions: 50000003 cycles: 16902123 heartbeat IPC: 2.68886 cumulative IPC: 2.95821 (Simulation time: 0 hr 1 min 15 sec) 

Warmup complete CPU 0 instructions: 50000003 cycles: 16902123 (Simulation time: 0 hr 1 min 15 sec) 

Heartbeat CPU 0 instructions: 60000000 cycles: 25871092 heartbeat IPC: 1.11496 cumulative IPC: 1.11496 (Simulation time: 0 hr 1 min 30 sec) 
Heartbeat CPU 0 instructions: 70000003 cycles: 34891523 heartbeat IPC: 1.10859 cumulative IPC: 1.11177 (Simulation time: 0 hr 1 min 44 sec) 
Heartbeat CPU 0 instructions: 80000000 cycles: 44985339 heartbeat IPC: 0.990705 cumulative IPC: 1.06825 (Simulation time: 0 hr 2 min 0 sec) 
Heartbeat CPU 0 instructions: 90000003 cycles: 55132967 heartbeat IPC: 0.985452 cumulative IPC: 1.04628 (Simulation time: 0 hr 2 min 15 sec) 
Heartbeat CPU 0 instructions: 100000001 cycles: 65905922 heartbeat IPC: 0.92825 cumulative IPC: 1.02033 (Simulation time: 0 hr 2 min 30 sec) 
Finished CPU 0 instructions: 50000002 cycles: 49003800 cumulative IPC: 1.02033 (Simulation time: 0 hr 2 min 30 sec) 

ChampSim completed all CPUs

Region of Interest Statistics

CPU 0 cumulative IPC: 1.02033 instructions: 50000002 cycles: 49003800
L1D TOTAL     ACCESS:   20006641  HIT:   18865695  MISS:    1140946
L1D LOAD      ACCESS:    7858108  HIT:    7328198  MISS:     529910
L1D RFO       ACCESS:    4552309  HIT:    4434872  MISS:     117437
L1D PREFETCH  ACCESS:    7596224  HIT:    7102625  MISS:     493599
L1D WRITEBACK ACCESS:          0  HIT:          0  MISS:          0
L1D PREFETCH  REQUESTED:    7918737  ISSUED:    7826828  USEFUL:     155348  USELESS:     338210
L1D AVERAGE MISS LATENCY: 55.2192 cycles
L1I TOTAL     ACCESS:   19451568  HIT:   17510235  MISS:    1941333
L1I LOAD      ACCESS:    9300931  HIT:    9089673  MISS:     211258
L1I RFO       ACCESS:          0  HIT:          0  MISS:          0
L1I PREFETCH  ACCESS:   10150637  HIT:    8420562  MISS:    1730075
L1I WRITEBACK ACCESS:          0  HIT:          0  MISS:          0
L1I PREFETCH  REQUESTED:   13564558  ISSUED:   13564558  USEFUL:     811271  USELESS:     918718
L1I AVERAGE MISS LATENCY: 29.6096 cycles
L2C TOTAL     ACCESS:    4178763  HIT:    3135683  MISS:    1043080
L2C LOAD      ACCESS:     554591  HIT:     308282  MISS:     246309
L2C RFO       ACCESS:     114659  HIT:      39230  MISS:      75429
L2C PREFETCH  ACCESS:    3225249  HIT:    2505253  MISS:     719996
L2C WRITEBACK ACCESS:     284264  HIT:     282918  MISS:       1346
L2C PREFETCH  REQUESTED:    2622394  ISSUED:    2619001  USEFUL:      29700  USELESS:     687885
L2C AVERAGE MISS LATENCY: 80.7931 cycles
LLC TOTAL     ACCESS:    1917398  HIT:    1548397  MISS:     369001
LLC LOAD      ACCESS:     246130  HIT:     183044  MISS:      63086
LLC RFO       ACCESS:      75426  HIT:      33108  MISS:      42318
LLC PREFETCH  ACCESS:    1427111  HIT:    1164469  MISS:     262642
LLC WRITEBACK ACCESS:     168731  HIT:     167776  MISS:        955
LLC PREFETCH  REQUESTED:          0  ISSUED:          0  USEFUL:      24863  USELESS:     227906
LLC AVERAGE MISS LATENCY: 191.935 cycles
Major fault: 0 Minor fault: 7793
CPU 0 L1D next line prefetcher final stats

DRAM Statistics
 CHANNEL 0
 RQ ROW_BUFFER_HIT:      84802  ROW_BUFFER_MISS:     283213
 DBUS_CONGESTED:     190897
 WQ ROW_BUFFER_HIT:      21568  ROW_BUFFER_MISS:      80142  FULL:          0

 AVG_CONGESTED_CYCLE: 5

CPU 0 Branch Prediction Accuracy: 95.439% MPKI: 9.02702 Average ROB Occupancy at Mispredict: 66.9834

Branch types
NOT_BRANCH: 40104088 80.2082%
BRANCH_DIRECT_JUMP: 497928 0.995856%
BRANCH_INDIRECT: 130587 0.261174%
BRANCH_CONDITIONAL: 7219018 14.438%
BRANCH_DIRECT_CALL: 625807 1.25161%
BRANCH_INDIRECT_CALL: 389787 0.779574%
BRANCH_RETURN: 1032747 2.06549%
BRANCH_OTHER: 0 0%

