Initialize SIGNATURE TABLE
ST_SET: 1
ST_WAY: 256
ST_TAG_BIT: 16
ST_TAG_MASK: ffff

Initialize PATTERN TABLE
PT_SET: 512
PT_WAY: 4
SIG_DELTA_BIT: 7
C_SIG_BIT: 4
C_DELTA_BIT: 4

Initialize PREFETCH FILTER
FILTER_SET: 1024

*** ChampSim Multicore Out-of-Order Simulator ***

Warmup Instructions: 50000000
Simulation Instructions: 50000000
Number of CPUs: 1
LLC sets: 2048
LLC ways: 16
Off-chip DRAM Size: 4096 MB Channels: 1 Width: 64-bit Data Rate: 3200 MT/s

CPU 0 runs /home/ykhodke/ChampSim/dpc3_traces/server_026.champsimtrace.xz
LHT KB: 126.25
SCC KB: 1.56
Total KB: 127.81
CPU 0 L1D next line prefetcher
Heartbeat CPU 0 instructions: 10000000 cycles: 3526233 heartbeat IPC: 2.83589 cumulative IPC: 2.83589 (Simulation time: 0 hr 0 min 16 sec) 
Heartbeat CPU 0 instructions: 20000002 cycles: 7057862 heartbeat IPC: 2.83156 cumulative IPC: 2.83372 (Simulation time: 0 hr 0 min 32 sec) 
Heartbeat CPU 0 instructions: 30000000 cycles: 10579221 heartbeat IPC: 2.83981 cumulative IPC: 2.83575 (Simulation time: 0 hr 0 min 49 sec) 
Heartbeat CPU 0 instructions: 40000003 cycles: 14109681 heartbeat IPC: 2.83249 cumulative IPC: 2.83493 (Simulation time: 0 hr 1 min 5 sec) 
Heartbeat CPU 0 instructions: 50000000 cycles: 17633418 heartbeat IPC: 2.8379 cumulative IPC: 2.83553 (Simulation time: 0 hr 1 min 22 sec) 

Warmup complete CPU 0 instructions: 50000004 cycles: 17633419 (Simulation time: 0 hr 1 min 22 sec) 

*** Reached end of trace for Core: 0 Repeating trace: /home/ykhodke/ChampSim/dpc3_traces/server_026.champsimtrace.xz
Heartbeat CPU 0 instructions: 60000000 cycles: 24615161 heartbeat IPC: 1.43231 cumulative IPC: 1.43231 (Simulation time: 0 hr 1 min 40 sec) 
Heartbeat CPU 0 instructions: 70000003 cycles: 31492439 heartbeat IPC: 1.45406 cumulative IPC: 1.4431 (Simulation time: 0 hr 1 min 57 sec) 
Heartbeat CPU 0 instructions: 80000002 cycles: 38469254 heartbeat IPC: 1.43332 cumulative IPC: 1.43983 (Simulation time: 0 hr 2 min 15 sec) 
Heartbeat CPU 0 instructions: 90000002 cycles: 45337976 heartbeat IPC: 1.45587 cumulative IPC: 1.44381 (Simulation time: 0 hr 2 min 33 sec) 
Heartbeat CPU 0 instructions: 100000000 cycles: 52276181 heartbeat IPC: 1.44129 cumulative IPC: 1.4433 (Simulation time: 0 hr 2 min 51 sec) 
Finished CPU 0 instructions: 50000000 cycles: 34642763 cumulative IPC: 1.4433 (Simulation time: 0 hr 2 min 51 sec) 

ChampSim completed all CPUs

Region of Interest Statistics

CPU 0 cumulative IPC: 1.4433 instructions: 50000000 cycles: 34642763
L1D TOTAL     ACCESS:   19931371  HIT:   18286226  MISS:    1645145
L1D LOAD      ACCESS:    7006556  HIT:    6278065  MISS:     728491
L1D RFO       ACCESS:    6250439  HIT:    5964002  MISS:     286437
L1D PREFETCH  ACCESS:    6674376  HIT:    6044159  MISS:     630217
L1D WRITEBACK ACCESS:          0  HIT:          0  MISS:          0
L1D PREFETCH  REQUESTED:    7054143  ISSUED:    6914441  USEFUL:     152469  USELESS:     477759
L1D AVERAGE MISS LATENCY: 23.8706 cycles
L1I TOTAL     ACCESS:   24744753  HIT:   19484523  MISS:    5260230
L1I LOAD      ACCESS:    9371239  HIT:    8858708  MISS:     512531
L1I RFO       ACCESS:          0  HIT:          0  MISS:          0
L1I PREFETCH  ACCESS:   15373514  HIT:   10625815  MISS:    4747699
L1I WRITEBACK ACCESS:          0  HIT:          0  MISS:          0
L1I PREFETCH  REQUESTED:   17904857  ISSUED:   17904857  USEFUL:    2435120  USELESS:    2312631
L1I AVERAGE MISS LATENCY: 15.4697 cycles
L2C TOTAL     ACCESS:    9385027  HIT:    8599726  MISS:     785301
L2C LOAD      ACCESS:     771099  HIT:     630739  MISS:     140360
L2C RFO       ACCESS:     284673  HIT:     187441  MISS:      97232
L2C PREFETCH  ACCESS:    7768097  HIT:    7225565  MISS:     542532
L2C WRITEBACK ACCESS:     561158  HIT:     555981  MISS:       5177
L2C PREFETCH  REQUESTED:    5402213  ISSUED:    5394052  USEFUL:      18979  USELESS:     522607
L2C AVERAGE MISS LATENCY: 37.8771 cycles
LLC TOTAL     ACCESS:    2366950  HIT:    2333957  MISS:      32993
LLC LOAD      ACCESS:     140122  HIT:     136770  MISS:       3352
LLC RFO       ACCESS:      97202  HIT:      82916  MISS:      14286
LLC PREFETCH  ACCESS:    1973275  HIT:    1958086  MISS:      15189
LLC WRITEBACK ACCESS:     156351  HIT:     156185  MISS:        166
LLC PREFETCH  REQUESTED:          0  ISSUED:          0  USEFUL:        938  USELESS:      14780
LLC AVERAGE MISS LATENCY: 190.585 cycles
Major fault: 0 Minor fault: 2180
CPU 0 L1D next line prefetcher final stats

DRAM Statistics
 CHANNEL 0
 RQ ROW_BUFFER_HIT:      11628  ROW_BUFFER_MISS:      21198
 DBUS_CONGESTED:      22548
 WQ ROW_BUFFER_HIT:       1433  ROW_BUFFER_MISS:      13740  FULL:          0

 AVG_CONGESTED_CYCLE: 6

CPU 0 Branch Prediction Accuracy: 99.822% MPKI: 0.32584 Average ROB Occupancy at Mispredict: 181.068

Branch types
NOT_BRANCH: 40848558 81.6971%
BRANCH_DIRECT_JUMP: 522045 1.04409%
BRANCH_INDIRECT: 204034 0.408068%
BRANCH_CONDITIONAL: 6212961 12.4259%
BRANCH_DIRECT_CALL: 932391 1.86478%
BRANCH_INDIRECT_CALL: 173764 0.347528%
BRANCH_RETURN: 1106152 2.2123%
BRANCH_OTHER: 0 0%

