Initialize SIGNATURE TABLE
ST_SET: 1
ST_WAY: 256
ST_TAG_BIT: 16
ST_TAG_MASK: ffff

Initialize PATTERN TABLE
PT_SET: 512
PT_WAY: 4
SIG_DELTA_BIT: 7
C_SIG_BIT: 4
C_DELTA_BIT: 4

Initialize PREFETCH FILTER
FILTER_SET: 1024

*** ChampSim Multicore Out-of-Order Simulator ***

Warmup Instructions: 50000000
Simulation Instructions: 50000000
Number of CPUs: 1
LLC sets: 2048
LLC ways: 16
Off-chip DRAM Size: 4096 MB Channels: 1 Width: 64-bit Data Rate: 3200 MT/s

CPU 0 runs /home/ykhodke/ChampSim/dpc3_traces/server_022.champsimtrace.xz
LHT KB: 126.25
SCC KB: 1.56
Total KB: 127.81
CPU 0 L1D next line prefetcher
Heartbeat CPU 0 instructions: 10000002 cycles: 3624330 heartbeat IPC: 2.75913 cumulative IPC: 2.75913 (Simulation time: 0 hr 0 min 16 sec) 
Heartbeat CPU 0 instructions: 20000001 cycles: 7254882 heartbeat IPC: 2.7544 cumulative IPC: 2.75676 (Simulation time: 0 hr 0 min 33 sec) 
Heartbeat CPU 0 instructions: 30000003 cycles: 10878943 heartbeat IPC: 2.75934 cumulative IPC: 2.75762 (Simulation time: 0 hr 0 min 49 sec) 
Heartbeat CPU 0 instructions: 40000003 cycles: 14510363 heartbeat IPC: 2.75374 cumulative IPC: 2.75665 (Simulation time: 0 hr 1 min 5 sec) 
Heartbeat CPU 0 instructions: 50000002 cycles: 18132158 heartbeat IPC: 2.76106 cumulative IPC: 2.75753 (Simulation time: 0 hr 1 min 21 sec) 

Warmup complete CPU 0 instructions: 50000002 cycles: 18132158 (Simulation time: 0 hr 1 min 21 sec) 

Heartbeat CPU 0 instructions: 60000000 cycles: 35511110 heartbeat IPC: 0.575409 cumulative IPC: 0.575409 (Simulation time: 0 hr 1 min 44 sec) 
Heartbeat CPU 0 instructions: 70000001 cycles: 53123716 heartbeat IPC: 0.567775 cumulative IPC: 0.571566 (Simulation time: 0 hr 2 min 8 sec) 
Heartbeat CPU 0 instructions: 80000001 cycles: 70501000 heartbeat IPC: 0.575464 cumulative IPC: 0.57286 (Simulation time: 0 hr 2 min 31 sec) 
Heartbeat CPU 0 instructions: 90000003 cycles: 88132984 heartbeat IPC: 0.567151 cumulative IPC: 0.571422 (Simulation time: 0 hr 2 min 54 sec) 
Heartbeat CPU 0 instructions: 100000003 cycles: 105405641 heartbeat IPC: 0.57895 cumulative IPC: 0.572912 (Simulation time: 0 hr 3 min 17 sec) 
Finished CPU 0 instructions: 50000001 cycles: 87273483 cumulative IPC: 0.572912 (Simulation time: 0 hr 3 min 17 sec) 

ChampSim completed all CPUs

Region of Interest Statistics

CPU 0 cumulative IPC: 0.572912 instructions: 50000001 cycles: 87273483
L1D TOTAL     ACCESS:   18730595  HIT:   16519824  MISS:    2210771
L1D LOAD      ACCESS:    7055536  HIT:    6334287  MISS:     721249
L1D RFO       ACCESS:    5937182  HIT:    4957458  MISS:     979724
L1D PREFETCH  ACCESS:    5737877  HIT:    5228079  MISS:     509798
L1D WRITEBACK ACCESS:          0  HIT:          0  MISS:          0
L1D PREFETCH  REQUESTED:    7098971  ISSUED:    6890578  USEFUL:     188599  USELESS:     321204
L1D AVERAGE MISS LATENCY: 178.988 cycles
L1I TOTAL     ACCESS:   24279789  HIT:   21156828  MISS:    3122961
L1I LOAD      ACCESS:   10088931  HIT:    9880071  MISS:     208860
L1I RFO       ACCESS:          0  HIT:          0  MISS:          0
L1I PREFETCH  ACCESS:   14190858  HIT:   11276757  MISS:    2914101
L1I WRITEBACK ACCESS:          0  HIT:          0  MISS:          0
L1I PREFETCH  REQUESTED:   15733080  ISSUED:   15733080  USEFUL:    2219190  USELESS:     694897
L1I AVERAGE MISS LATENCY: 16.0988 cycles
L2C TOTAL     ACCESS:    7645781  HIT:    5783497  MISS:    1862284
L2C LOAD      ACCESS:     507751  HIT:     260165  MISS:     247586
L2C RFO       ACCESS:     978963  HIT:      22300  MISS:     956663
L2C PREFETCH  ACCESS:    4973950  HIT:    4320132  MISS:     653818
L2C WRITEBACK ACCESS:    1185117  HIT:    1180900  MISS:       4217
L2C PREFETCH  REQUESTED:    3403730  ISSUED:    3402823  USEFUL:      21206  USELESS:     632575
L2C AVERAGE MISS LATENCY: 220.333 cycles
LLC TOTAL     ACCESS:    3854779  HIT:    2480866  MISS:    1373913
LLC LOAD      ACCESS:     247576  HIT:     171149  MISS:      76427
LLC RFO       ACCESS:     956663  HIT:     142375  MISS:     814288
LLC PREFETCH  ACCESS:    1533569  HIT:    1052738  MISS:     480831
LLC WRITEBACK ACCESS:    1116971  HIT:    1114604  MISS:       2367
LLC PREFETCH  REQUESTED:          0  ISSUED:          0  USEFUL:      23710  USELESS:     457433
LLC AVERAGE MISS LATENCY: 287.875 cycles
Major fault: 0 Minor fault: 23513
CPU 0 L1D next line prefetcher final stats

DRAM Statistics
 CHANNEL 0
 RQ ROW_BUFFER_HIT:     388057  ROW_BUFFER_MISS:     983211
 DBUS_CONGESTED:    1390310
 WQ ROW_BUFFER_HIT:     287762  ROW_BUFFER_MISS:     609826  FULL:          0

 AVG_CONGESTED_CYCLE: 6

CPU 0 Branch Prediction Accuracy: 99.8317% MPKI: 0.27564 Average ROB Occupancy at Mispredict: 219.389

Branch types
NOT_BRANCH: 41811139 83.6223%
BRANCH_DIRECT_JUMP: 445742 0.891484%
BRANCH_INDIRECT: 48876 0.097752%
BRANCH_CONDITIONAL: 5859405 11.7188%
BRANCH_DIRECT_CALL: 758266 1.51653%
BRANCH_INDIRECT_CALL: 159103 0.318206%
BRANCH_RETURN: 917372 1.83474%
BRANCH_OTHER: 0 0%

