Initialize SIGNATURE TABLE
ST_SET: 1
ST_WAY: 256
ST_TAG_BIT: 16
ST_TAG_MASK: ffff

Initialize PATTERN TABLE
PT_SET: 512
PT_WAY: 4
SIG_DELTA_BIT: 7
C_SIG_BIT: 4
C_DELTA_BIT: 4

Initialize PREFETCH FILTER
FILTER_SET: 1024

*** ChampSim Multicore Out-of-Order Simulator ***

Warmup Instructions: 50000000
Simulation Instructions: 50000000
Number of CPUs: 1
LLC sets: 2048
LLC ways: 16
Off-chip DRAM Size: 4096 MB Channels: 1 Width: 64-bit Data Rate: 3200 MT/s

CPU 0 runs /home/ykhodke/ChampSim/dpc3_traces/600.perlbench_s-210B.champsimtrace.xz
CPU 0 L1I next line prefetcher
CPU 0 L1D next line prefetcher
Heartbeat CPU 0 instructions: 10000000 cycles: 3913409 heartbeat IPC: 2.55532 cumulative IPC: 2.55532 (Simulation time: 0 hr 0 min 14 sec) 
Heartbeat CPU 0 instructions: 20000000 cycles: 7798225 heartbeat IPC: 2.57412 cumulative IPC: 2.56469 (Simulation time: 0 hr 0 min 27 sec) 
Heartbeat CPU 0 instructions: 30000002 cycles: 11686387 heartbeat IPC: 2.57191 cumulative IPC: 2.56709 (Simulation time: 0 hr 0 min 41 sec) 
Heartbeat CPU 0 instructions: 40000000 cycles: 15533188 heartbeat IPC: 2.59956 cumulative IPC: 2.57513 (Simulation time: 0 hr 0 min 54 sec) 
Heartbeat CPU 0 instructions: 50000003 cycles: 19428598 heartbeat IPC: 2.56712 cumulative IPC: 2.57353 (Simulation time: 0 hr 1 min 8 sec) 

Warmup complete CPU 0 instructions: 50000003 cycles: 19428598 (Simulation time: 0 hr 1 min 8 sec) 

Heartbeat CPU 0 instructions: 60000002 cycles: 26261223 heartbeat IPC: 1.46357 cumulative IPC: 1.46357 (Simulation time: 0 hr 1 min 21 sec) 
Heartbeat CPU 0 instructions: 70000000 cycles: 31028543 heartbeat IPC: 2.09761 cumulative IPC: 1.72415 (Simulation time: 0 hr 1 min 34 sec) 
Heartbeat CPU 0 instructions: 80000001 cycles: 36008221 heartbeat IPC: 2.00816 cumulative IPC: 1.80945 (Simulation time: 0 hr 1 min 48 sec) 
Heartbeat CPU 0 instructions: 90000002 cycles: 42801997 heartbeat IPC: 1.47194 cumulative IPC: 1.71135 (Simulation time: 0 hr 2 min 1 sec) 
Heartbeat CPU 0 instructions: 100000003 cycles: 49683269 heartbeat IPC: 1.45322 cumulative IPC: 1.65264 (Simulation time: 0 hr 2 min 14 sec) 
Finished CPU 0 instructions: 50000000 cycles: 30254671 cumulative IPC: 1.65264 (Simulation time: 0 hr 2 min 14 sec) 

ChampSim completed all CPUs

Region of Interest Statistics

CPU 0 cumulative IPC: 1.65264 instructions: 50000000 cycles: 30254671
L1D TOTAL     ACCESS:   24916013  HIT:   24908970  MISS:       7043
L1D LOAD      ACCESS:    7125298  HIT:    7122752  MISS:       2546
L1D RFO       ACCESS:   10824333  HIT:   10824083  MISS:        250
L1D PREFETCH  ACCESS:    6966382  HIT:    6962135  MISS:       4247
L1D WRITEBACK ACCESS:          0  HIT:          0  MISS:          0
L1D PREFETCH  REQUESTED:    7125545  ISSUED:    7085005  USEFUL:       2500  USELESS:       1739
L1D AVERAGE MISS LATENCY: 61.3828 cycles
L1I TOTAL     ACCESS:    7991627  HIT:    7989742  MISS:       1885
L1I LOAD      ACCESS:    7974526  HIT:    7973958  MISS:        568
L1I RFO       ACCESS:          0  HIT:          0  MISS:          0
L1I PREFETCH  ACCESS:      17101  HIT:      15784  MISS:       1317
L1I WRITEBACK ACCESS:          0  HIT:          0  MISS:          0
L1I PREFETCH  REQUESTED:      17337  ISSUED:      17337  USEFUL:       1093  USELESS:        225
L1I AVERAGE MISS LATENCY: 15.6679 cycles
L2C TOTAL     ACCESS:      14098  HIT:      11656  MISS:       2442
L2C LOAD      ACCESS:       2928  HIT:       1723  MISS:       1205
L2C RFO       ACCESS:        250  HIT:         66  MISS:        184
L2C PREFETCH  ACCESS:      10295  HIT:       9244  MISS:       1051
L2C WRITEBACK ACCESS:        625  HIT:        623  MISS:          2
L2C PREFETCH  REQUESTED:      10168  ISSUED:      10168  USEFUL:         39  USELESS:        177
L2C AVERAGE MISS LATENCY: 137.199 cycles
LLC TOTAL     ACCESS:       4921  HIT:       1953  MISS:       2968
LLC LOAD      ACCESS:       1205  HIT:        284  MISS:        921
LLC RFO       ACCESS:        184  HIT:          3  MISS:        181
LLC PREFETCH  ACCESS:       3482  HIT:       1616  MISS:       1866
LLC WRITEBACK ACCESS:         50  HIT:         50  MISS:          0
LLC PREFETCH  REQUESTED:          0  ISSUED:          0  USEFUL:        285  USELESS:          0
LLC AVERAGE MISS LATENCY: 139.064 cycles
Major fault: 0 Minor fault: 683
I-Shadow cache 408 bytes
Touched + WorthPF tables 24576 bytes 
MMA filter 174 bytes 
FNL filter 272 bytes 
TOTAL PREFETCHER STORAGE SIZE: 98134 bytes
CPU 0 L1I next line prefetcher final stats
CPU 0 L1D next line prefetcher final stats

DRAM Statistics
 CHANNEL 0
 RQ ROW_BUFFER_HIT:       1178  ROW_BUFFER_MISS:       1790
 DBUS_CONGESTED:        992
 WQ ROW_BUFFER_HIT:          0  ROW_BUFFER_MISS:          0  FULL:          0

 AVG_CONGESTED_CYCLE: 4

CPU 0 Branch Prediction Accuracy: 99.3421% MPKI: 0.91044 Average ROB Occupancy at Mispredict: 180.599

Branch types
NOT_BRANCH: 43080723 86.1614%
BRANCH_DIRECT_JUMP: 1038017 2.07603%
BRANCH_INDIRECT: 413789 0.827578%
BRANCH_CONDITIONAL: 4872387 9.74477%
BRANCH_DIRECT_CALL: 285993 0.571986%
BRANCH_INDIRECT_CALL: 11392 0.022784%
BRANCH_RETURN: 297386 0.594772%
BRANCH_OTHER: 0 0%

