Initialize SIGNATURE TABLE
ST_SET: 1
ST_WAY: 256
ST_TAG_BIT: 16
ST_TAG_MASK: ffff

Initialize PATTERN TABLE
PT_SET: 512
PT_WAY: 4
SIG_DELTA_BIT: 7
C_SIG_BIT: 4
C_DELTA_BIT: 4

Initialize PREFETCH FILTER
FILTER_SET: 1024

*** ChampSim Multicore Out-of-Order Simulator ***

Warmup Instructions: 50000000
Simulation Instructions: 50000000
Number of CPUs: 1
LLC sets: 2048
LLC ways: 16
Off-chip DRAM Size: 4096 MB Channels: 1 Width: 64-bit Data Rate: 3200 MT/s

CPU 0 runs /home/ykhodke/ChampSim/dpc3_traces/602.gcc_s-734B.champsimtrace.xz
CPU 0 Temporal Ancestry L1I prefetcher
CPU 0 L1D next line prefetcher
Heartbeat CPU 0 instructions: 10000001 cycles: 5079311 heartbeat IPC: 1.96877 cumulative IPC: 1.96877 (Simulation time: 0 hr 0 min 18 sec) 
Heartbeat CPU 0 instructions: 20000002 cycles: 10145319 heartbeat IPC: 1.97394 cumulative IPC: 1.97135 (Simulation time: 0 hr 0 min 37 sec) 
Heartbeat CPU 0 instructions: 30000000 cycles: 15216646 heartbeat IPC: 1.97187 cumulative IPC: 1.97153 (Simulation time: 0 hr 0 min 57 sec) 
Heartbeat CPU 0 instructions: 40000002 cycles: 20297309 heartbeat IPC: 1.96825 cumulative IPC: 1.9707 (Simulation time: 0 hr 1 min 17 sec) 
Heartbeat CPU 0 instructions: 50000000 cycles: 25371020 heartbeat IPC: 1.97094 cumulative IPC: 1.97075 (Simulation time: 0 hr 1 min 37 sec) 

Warmup complete CPU 0 instructions: 50000001 cycles: 25371022 (Simulation time: 0 hr 1 min 37 sec) 

Heartbeat CPU 0 instructions: 60000000 cycles: 36094436 heartbeat IPC: 0.932539 cumulative IPC: 0.932539 (Simulation time: 0 hr 1 min 58 sec) 
Heartbeat CPU 0 instructions: 70000002 cycles: 47440027 heartbeat IPC: 0.8814 cumulative IPC: 0.906248 (Simulation time: 0 hr 2 min 19 sec) 
Heartbeat CPU 0 instructions: 80000000 cycles: 58129251 heartbeat IPC: 0.935521 cumulative IPC: 0.9158 (Simulation time: 0 hr 2 min 41 sec) 
Heartbeat CPU 0 instructions: 90000000 cycles: 68936486 heartbeat IPC: 0.925306 cumulative IPC: 0.918158 (Simulation time: 0 hr 3 min 3 sec) 
Heartbeat CPU 0 instructions: 100000000 cycles: 88505494 heartbeat IPC: 0.511012 cumulative IPC: 0.79196 (Simulation time: 0 hr 3 min 27 sec) 
Finished CPU 0 instructions: 50000003 cycles: 63134473 cumulative IPC: 0.79196 (Simulation time: 0 hr 3 min 27 sec) 

ChampSim completed all CPUs

Region of Interest Statistics

CPU 0 cumulative IPC: 0.79196 instructions: 50000003 cycles: 63134473
L1D TOTAL     ACCESS:   22399004  HIT:   21432763  MISS:     966241
L1D LOAD      ACCESS:    9246077  HIT:    9064006  MISS:     182071
L1D RFO       ACCESS:    4794909  HIT:    4793708  MISS:       1201
L1D PREFETCH  ACCESS:    8358018  HIT:    7575049  MISS:     782969
L1D WRITEBACK ACCESS:          0  HIT:          0  MISS:          0
L1D PREFETCH  REQUESTED:    9300945  ISSUED:    9209290  USEFUL:     748235  USELESS:      34724
L1D AVERAGE MISS LATENCY: 27.9159 cycles
L1I TOTAL     ACCESS:   10818680  HIT:   10818572  MISS:        108
L1I LOAD      ACCESS:   10818623  HIT:   10818570  MISS:         53
L1I RFO       ACCESS:          0  HIT:          0  MISS:          0
L1I PREFETCH  ACCESS:         57  HIT:          2  MISS:         55
L1I WRITEBACK ACCESS:          0  HIT:          0  MISS:          0
L1I PREFETCH  REQUESTED:        125  ISSUED:        125  USEFUL:         36  USELESS:          0
L1I AVERAGE MISS LATENCY: 148.435 cycles
L2C TOTAL     ACCESS:    3551778  HIT:    2976739  MISS:     575039
L2C LOAD      ACCESS:      57576  HIT:      24270  MISS:      33306
L2C RFO       ACCESS:        937  HIT:        107  MISS:        830
L2C PREFETCH  ACCESS:    3481489  HIT:    2940627  MISS:     540862
L2C WRITEBACK ACCESS:      11776  HIT:      11735  MISS:         41
L2C PREFETCH  REQUESTED:    6359871  ISSUED:    6106381  USEFUL:       2934  USELESS:     538161
L2C AVERAGE MISS LATENCY: 53.8376 cycles
LLC TOTAL     ACCESS:    3769744  HIT:    3167007  MISS:     602737
LLC LOAD      ACCESS:      33250  HIT:       6784  MISS:      26466
LLC RFO       ACCESS:        828  HIT:        176  MISS:        652
LLC PREFETCH  ACCESS:    3727328  HIT:    3153006  MISS:     574322
LLC WRITEBACK ACCESS:       8338  HIT:       7041  MISS:       1297
LLC PREFETCH  REQUESTED:          0  ISSUED:          0  USEFUL:       4117  USELESS:     570820
LLC AVERAGE MISS LATENCY: 94.7925 cycles
Major fault: 0 Minor fault: 8618
CPU 0 L1D next line prefetcher final stats

DRAM Statistics
 CHANNEL 0
 RQ ROW_BUFFER_HIT:     515639  ROW_BUFFER_MISS:      85799
 DBUS_CONGESTED:     264721
 WQ ROW_BUFFER_HIT:       1129  ROW_BUFFER_MISS:       6294  FULL:          0

 AVG_CONGESTED_CYCLE: 6

CPU 0 Branch Prediction Accuracy: 99.8135% MPKI: 0.4514 Average ROB Occupancy at Mispredict: 76.1268

Branch types
NOT_BRANCH: 37899685 75.7994%
BRANCH_DIRECT_JUMP: 1184506 2.36901%
BRANCH_INDIRECT: 0 0%
BRANCH_CONDITIONAL: 9712185 19.4244%
BRANCH_DIRECT_CALL: 601789 1.20358%
BRANCH_INDIRECT_CALL: 21 4.2e-05%
BRANCH_RETURN: 601809 1.20362%
BRANCH_OTHER: 0 0%

