Initialize SIGNATURE TABLE
ST_SET: 1
ST_WAY: 256
ST_TAG_BIT: 16
ST_TAG_MASK: ffff

Initialize PATTERN TABLE
PT_SET: 512
PT_WAY: 4
SIG_DELTA_BIT: 7
C_SIG_BIT: 4
C_DELTA_BIT: 4

Initialize PREFETCH FILTER
FILTER_SET: 1024

*** ChampSim Multicore Out-of-Order Simulator ***

Warmup Instructions: 50000000
Simulation Instructions: 50000000
Number of CPUs: 1
LLC sets: 2048
LLC ways: 16
Off-chip DRAM Size: 4096 MB Channels: 1 Width: 64-bit Data Rate: 3200 MT/s

CPU 0 runs /home/ykhodke/ChampSim/dpc3_traces/605.mcf_s-665B.champsimtrace.xz
CPU 0 L1I next line prefetcher
CPU 0 L1D next line prefetcher
Heartbeat CPU 0 instructions: 10000000 cycles: 4106125 heartbeat IPC: 2.43539 cumulative IPC: 2.43539 (Simulation time: 0 hr 0 min 14 sec) 
Heartbeat CPU 0 instructions: 20000000 cycles: 8220925 heartbeat IPC: 2.43025 cumulative IPC: 2.43282 (Simulation time: 0 hr 0 min 29 sec) 
Heartbeat CPU 0 instructions: 30000002 cycles: 12321043 heartbeat IPC: 2.43895 cumulative IPC: 2.43486 (Simulation time: 0 hr 0 min 44 sec) 
Heartbeat CPU 0 instructions: 40000000 cycles: 16424602 heartbeat IPC: 2.43691 cumulative IPC: 2.43537 (Simulation time: 0 hr 0 min 58 sec) 
Heartbeat CPU 0 instructions: 50000000 cycles: 20523441 heartbeat IPC: 2.43972 cumulative IPC: 2.43624 (Simulation time: 0 hr 1 min 13 sec) 

Warmup complete CPU 0 instructions: 50000004 cycles: 20523442 (Simulation time: 0 hr 1 min 13 sec) 

Heartbeat CPU 0 instructions: 60000003 cycles: 44579509 heartbeat IPC: 0.415696 cumulative IPC: 0.415696 (Simulation time: 0 hr 1 min 27 sec) 
Heartbeat CPU 0 instructions: 70000003 cycles: 68346288 heartbeat IPC: 0.420755 cumulative IPC: 0.41821 (Simulation time: 0 hr 1 min 40 sec) 
Heartbeat CPU 0 instructions: 80000001 cycles: 92390891 heartbeat IPC: 0.415894 cumulative IPC: 0.417435 (Simulation time: 0 hr 1 min 54 sec) 
Heartbeat CPU 0 instructions: 90000001 cycles: 116817614 heartbeat IPC: 0.409388 cumulative IPC: 0.415394 (Simulation time: 0 hr 2 min 8 sec) 
Heartbeat CPU 0 instructions: 100000000 cycles: 139554494 heartbeat IPC: 0.439814 cumulative IPC: 0.420058 (Simulation time: 0 hr 2 min 21 sec) 
Finished CPU 0 instructions: 50000000 cycles: 119031053 cumulative IPC: 0.420058 (Simulation time: 0 hr 2 min 21 sec) 

ChampSim completed all CPUs

Region of Interest Statistics

CPU 0 cumulative IPC: 0.420058 instructions: 50000000 cycles: 119031053
L1D TOTAL     ACCESS:   30411897  HIT:   27229177  MISS:    3182720
L1D LOAD      ACCESS:   12756117  HIT:   11151196  MISS:    1604921
L1D RFO       ACCESS:    5404375  HIT:    5206413  MISS:     197962
L1D PREFETCH  ACCESS:   12251405  HIT:   10871568  MISS:    1379837
L1D WRITEBACK ACCESS:          0  HIT:          0  MISS:          0
L1D PREFETCH  REQUESTED:   12901366  ISSUED:   12788782  USEFUL:     246325  USELESS:    1133523
L1D AVERAGE MISS LATENCY: 67.8187 cycles
L1I TOTAL     ACCESS:    9394343  HIT:    9394343  MISS:          0
L1I LOAD      ACCESS:    9392464  HIT:    9392464  MISS:          0
L1I RFO       ACCESS:          0  HIT:          0  MISS:          0
L1I PREFETCH  ACCESS:       1879  HIT:       1879  MISS:          0
L1I WRITEBACK ACCESS:          0  HIT:          0  MISS:          0
L1I PREFETCH  REQUESTED:       1879  ISSUED:       1879  USEFUL:          0  USELESS:          0
L1I AVERAGE MISS LATENCY: -nan cycles
L2C TOTAL     ACCESS:    3907857  HIT:    1798098  MISS:    2109759
L2C LOAD      ACCESS:    1410300  HIT:     535019  MISS:     875281
L2C RFO       ACCESS:     197887  HIT:      76710  MISS:     121177
L2C PREFETCH  ACCESS:    2014109  HIT:     901113  MISS:    1112996
L2C WRITEBACK ACCESS:     285561  HIT:     285256  MISS:        305
L2C PREFETCH  REQUESTED:    2346688  ISSUED:    2346688  USEFUL:      91229  USELESS:    1021355
L2C AVERAGE MISS LATENCY: 91.9871 cycles
LLC TOTAL     ACCESS:    2938716  HIT:    1971499  MISS:     967217
LLC LOAD      ACCESS:     875267  HIT:     586164  MISS:     289103
LLC RFO       ACCESS:     121173  HIT:     117731  MISS:       3442
LLC PREFETCH  ACCESS:    1764903  HIT:    1091378  MISS:     673525
LLC WRITEBACK ACCESS:     177373  HIT:     176226  MISS:       1147
LLC PREFETCH  REQUESTED:          0  ISSUED:          0  USEFUL:     102683  USELESS:     570508
LLC AVERAGE MISS LATENCY: 188.605 cycles
Major fault: 0 Minor fault: 15068
I-Shadow cache 408 bytes
Touched + WorthPF tables 24576 bytes 
MMA filter 174 bytes 
FNL filter 272 bytes 
TOTAL PREFETCHER STORAGE SIZE: 98134 bytes
CPU 0 L1I next line prefetcher final stats
CPU 0 L1D next line prefetcher final stats

DRAM Statistics
 CHANNEL 0
 RQ ROW_BUFFER_HIT:     136065  ROW_BUFFER_MISS:     829965
 DBUS_CONGESTED:     328735
 WQ ROW_BUFFER_HIT:       4869  ROW_BUFFER_MISS:      10480  FULL:          0

 AVG_CONGESTED_CYCLE: 5

CPU 0 Branch Prediction Accuracy: 93.133% MPKI: 17.08 Average ROB Occupancy at Mispredict: 26.6721

Branch types
NOT_BRANCH: 37563287 75.1266%
BRANCH_DIRECT_JUMP: 1317761 2.63552%
BRANCH_INDIRECT: 0 0%
BRANCH_CONDITIONAL: 8419917 16.8398%
BRANCH_DIRECT_CALL: 1274782 2.54956%
BRANCH_INDIRECT_CALL: 74550 0.1491%
BRANCH_RETURN: 1349334 2.69867%
BRANCH_OTHER: 0 0%

