Initialize SIGNATURE TABLE
ST_SET: 1
ST_WAY: 256
ST_TAG_BIT: 16
ST_TAG_MASK: ffff

Initialize PATTERN TABLE
PT_SET: 512
PT_WAY: 4
SIG_DELTA_BIT: 7
C_SIG_BIT: 4
C_DELTA_BIT: 4

Initialize PREFETCH FILTER
FILTER_SET: 1024

*** ChampSim Multicore Out-of-Order Simulator ***

Warmup Instructions: 50000000
Simulation Instructions: 50000000
Number of CPUs: 1
LLC sets: 2048
LLC ways: 16
Off-chip DRAM Size: 4096 MB Channels: 1 Width: 64-bit Data Rate: 3200 MT/s

CPU 0 runs /home/ykhodke/ChampSim/dpc3_traces/605.mcf_s-665B.champsimtrace.xz
CPU 0 Temporal Ancestry L1I prefetcher
CPU 0 L1D next line prefetcher
Heartbeat CPU 0 instructions: 10000000 cycles: 4106199 heartbeat IPC: 2.43534 cumulative IPC: 2.43534 (Simulation time: 0 hr 0 min 22 sec) 
Heartbeat CPU 0 instructions: 20000000 cycles: 8221042 heartbeat IPC: 2.43023 cumulative IPC: 2.43278 (Simulation time: 0 hr 0 min 43 sec) 
Heartbeat CPU 0 instructions: 30000002 cycles: 12321171 heartbeat IPC: 2.43895 cumulative IPC: 2.43483 (Simulation time: 0 hr 1 min 4 sec) 
Heartbeat CPU 0 instructions: 40000000 cycles: 16424587 heartbeat IPC: 2.43699 cumulative IPC: 2.43537 (Simulation time: 0 hr 1 min 24 sec) 
Heartbeat CPU 0 instructions: 50000000 cycles: 20523493 heartbeat IPC: 2.43968 cumulative IPC: 2.43623 (Simulation time: 0 hr 1 min 46 sec) 

Warmup complete CPU 0 instructions: 50000004 cycles: 20523494 (Simulation time: 0 hr 1 min 46 sec) 

Heartbeat CPU 0 instructions: 60000003 cycles: 44587888 heartbeat IPC: 0.415552 cumulative IPC: 0.415552 (Simulation time: 0 hr 2 min 4 sec) 
Heartbeat CPU 0 instructions: 70000003 cycles: 68358361 heartbeat IPC: 0.42069 cumulative IPC: 0.418105 (Simulation time: 0 hr 2 min 23 sec) 
Heartbeat CPU 0 instructions: 80000001 cycles: 92386572 heartbeat IPC: 0.416177 cumulative IPC: 0.417461 (Simulation time: 0 hr 2 min 42 sec) 
Heartbeat CPU 0 instructions: 90000001 cycles: 116803173 heartbeat IPC: 0.409557 cumulative IPC: 0.415456 (Simulation time: 0 hr 3 min 1 sec) 
Heartbeat CPU 0 instructions: 100000000 cycles: 139521976 heartbeat IPC: 0.440164 cumulative IPC: 0.420173 (Simulation time: 0 hr 3 min 19 sec) 
Finished CPU 0 instructions: 50000000 cycles: 118998483 cumulative IPC: 0.420173 (Simulation time: 0 hr 3 min 19 sec) 

ChampSim completed all CPUs

Region of Interest Statistics

CPU 0 cumulative IPC: 0.420173 instructions: 50000000 cycles: 118998483
L1D TOTAL     ACCESS:   30412227  HIT:   27229507  MISS:    3182720
L1D LOAD      ACCESS:   12756163  HIT:   11151360  MISS:    1604803
L1D RFO       ACCESS:    5404462  HIT:    5206512  MISS:     197950
L1D PREFETCH  ACCESS:   12251602  HIT:   10871635  MISS:    1379967
L1D WRITEBACK ACCESS:          0  HIT:          0  MISS:          0
L1D PREFETCH  REQUESTED:   12901389  ISSUED:   12788805  USEFUL:     246457  USELESS:    1133521
L1D AVERAGE MISS LATENCY: 67.7849 cycles
L1I TOTAL     ACCESS:    9392435  HIT:    9392435  MISS:          0
L1I LOAD      ACCESS:    9392435  HIT:    9392435  MISS:          0
L1I RFO       ACCESS:          0  HIT:          0  MISS:          0
L1I PREFETCH  ACCESS:          0  HIT:          0  MISS:          0
L1I WRITEBACK ACCESS:          0  HIT:          0  MISS:          0
L1I PREFETCH  REQUESTED:          0  ISSUED:          0  USEFUL:          0  USELESS:          0
L1I AVERAGE MISS LATENCY: -nan cycles
L2C TOTAL     ACCESS:    3908279  HIT:    1798433  MISS:    2109846
L2C LOAD      ACCESS:    1410300  HIT:     534933  MISS:     875367
L2C RFO       ACCESS:     197882  HIT:      76697  MISS:     121185
L2C PREFETCH  ACCESS:    2014545  HIT:     901555  MISS:    1112990
L2C WRITEBACK ACCESS:     285552  HIT:     285248  MISS:        304
L2C PREFETCH  REQUESTED:    2362652  ISSUED:    2362652  USEFUL:      91315  USELESS:    1021260
L2C AVERAGE MISS LATENCY: 91.8853 cycles
LLC TOTAL     ACCESS:    2943812  HIT:    1976232  MISS:     967580
LLC LOAD      ACCESS:     875354  HIT:     586651  MISS:     288703
LLC RFO       ACCESS:     121182  HIT:     117861  MISS:       3321
LLC PREFETCH  ACCESS:    1769871  HIT:    1095457  MISS:     674414
LLC WRITEBACK ACCESS:     177405  HIT:     176263  MISS:       1142
LLC PREFETCH  REQUESTED:          0  ISSUED:          0  USEFUL:     102870  USELESS:     571143
LLC AVERAGE MISS LATENCY: 188.756 cycles
Major fault: 0 Minor fault: 15068
CPU 0 L1D next line prefetcher final stats

DRAM Statistics
 CHANNEL 0
 RQ ROW_BUFFER_HIT:     135838  ROW_BUFFER_MISS:     830569
 DBUS_CONGESTED:     329625
 WQ ROW_BUFFER_HIT:       4796  ROW_BUFFER_MISS:      10437  FULL:          0

 AVG_CONGESTED_CYCLE: 5

CPU 0 Branch Prediction Accuracy: 93.133% MPKI: 17.08 Average ROB Occupancy at Mispredict: 26.6725

Branch types
NOT_BRANCH: 37563287 75.1266%
BRANCH_DIRECT_JUMP: 1317761 2.63552%
BRANCH_INDIRECT: 0 0%
BRANCH_CONDITIONAL: 8419917 16.8398%
BRANCH_DIRECT_CALL: 1274782 2.54956%
BRANCH_INDIRECT_CALL: 74550 0.1491%
BRANCH_RETURN: 1349334 2.69867%
BRANCH_OTHER: 0 0%

