Initialize SIGNATURE TABLE
ST_SET: 1
ST_WAY: 256
ST_TAG_BIT: 16
ST_TAG_MASK: ffff

Initialize PATTERN TABLE
PT_SET: 512
PT_WAY: 4
SIG_DELTA_BIT: 7
C_SIG_BIT: 4
C_DELTA_BIT: 4

Initialize PREFETCH FILTER
FILTER_SET: 1024

*** ChampSim Multicore Out-of-Order Simulator ***

Warmup Instructions: 50000000
Simulation Instructions: 50000000
Number of CPUs: 1
LLC sets: 2048
LLC ways: 16
Off-chip DRAM Size: 4096 MB Channels: 1 Width: 64-bit Data Rate: 3200 MT/s

CPU 0 runs /home/ykhodke/ChampSim/dpc3_traces/620.omnetpp_s-874B.champsimtrace.xz
CPU 0 Temporal Ancestry L1I prefetcher
CPU 0 L1D next line prefetcher
Heartbeat CPU 0 instructions: 10000001 cycles: 5588445 heartbeat IPC: 1.78941 cumulative IPC: 1.78941 (Simulation time: 0 hr 0 min 32 sec) 
Heartbeat CPU 0 instructions: 20000001 cycles: 11176579 heartbeat IPC: 1.78951 cumulative IPC: 1.78946 (Simulation time: 0 hr 1 min 6 sec) 
Heartbeat CPU 0 instructions: 30000002 cycles: 16757465 heartbeat IPC: 1.79183 cumulative IPC: 1.79025 (Simulation time: 0 hr 1 min 39 sec) 
Heartbeat CPU 0 instructions: 40000000 cycles: 22354594 heartbeat IPC: 1.78663 cumulative IPC: 1.78934 (Simulation time: 0 hr 2 min 14 sec) 
Heartbeat CPU 0 instructions: 50000000 cycles: 27944009 heartbeat IPC: 1.7891 cumulative IPC: 1.78929 (Simulation time: 0 hr 2 min 48 sec) 

Warmup complete CPU 0 instructions: 50000001 cycles: 27944010 (Simulation time: 0 hr 2 min 48 sec) 

Heartbeat CPU 0 instructions: 60000001 cycles: 54368809 heartbeat IPC: 0.378432 cumulative IPC: 0.378432 (Simulation time: 0 hr 3 min 21 sec) 
Heartbeat CPU 0 instructions: 70000002 cycles: 80268725 heartbeat IPC: 0.386102 cumulative IPC: 0.382229 (Simulation time: 0 hr 3 min 54 sec) 
Heartbeat CPU 0 instructions: 80000002 cycles: 106611559 heartbeat IPC: 0.37961 cumulative IPC: 0.381352 (Simulation time: 0 hr 4 min 27 sec) 
Heartbeat CPU 0 instructions: 90000001 cycles: 132301974 heartbeat IPC: 0.38925 cumulative IPC: 0.383296 (Simulation time: 0 hr 4 min 59 sec) 
Heartbeat CPU 0 instructions: 100000000 cycles: 158872522 heartbeat IPC: 0.376357 cumulative IPC: 0.381888 (Simulation time: 0 hr 5 min 32 sec) 
Finished CPU 0 instructions: 50000000 cycles: 130928514 cumulative IPC: 0.381888 (Simulation time: 0 hr 5 min 32 sec) 

ChampSim completed all CPUs

Region of Interest Statistics

CPU 0 cumulative IPC: 0.381888 instructions: 50000000 cycles: 130928514
L1D TOTAL     ACCESS:   32209067  HIT:   30746925  MISS:    1462142
L1D LOAD      ACCESS:   11731106  HIT:   11004858  MISS:     726248
L1D RFO       ACCESS:    8991231  HIT:    8921431  MISS:      69800
L1D PREFETCH  ACCESS:   11486730  HIT:   10820636  MISS:     666094
L1D WRITEBACK ACCESS:          0  HIT:          0  MISS:          0
L1D PREFETCH  REQUESTED:   11767150  ISSUED:   11715293  USEFUL:     150198  USELESS:     515896
L1D AVERAGE MISS LATENCY: 118.367 cycles
L1I TOTAL     ACCESS:   12622229  HIT:   11667928  MISS:     954301
L1I LOAD      ACCESS:   11122738  HIT:   11111368  MISS:      11370
L1I RFO       ACCESS:          0  HIT:          0  MISS:          0
L1I PREFETCH  ACCESS:    1499491  HIT:     556560  MISS:     942931
L1I WRITEBACK ACCESS:          0  HIT:          0  MISS:          0
L1I PREFETCH  REQUESTED:    2944388  ISSUED:    2944388  USEFUL:     327191  USELESS:     615761
L1I AVERAGE MISS LATENCY: 17.2995 cycles
L2C TOTAL     ACCESS:    3542790  HIT:    2567516  MISS:     975274
L2C LOAD      ACCESS:     719132  HIT:     259082  MISS:     460050
L2C RFO       ACCESS:      65021  HIT:      13675  MISS:      51346
L2C PREFETCH  ACCESS:    2284873  HIT:    1821898  MISS:     462975
L2C WRITEBACK ACCESS:     473764  HIT:     472861  MISS:        903
L2C PREFETCH  REQUESTED:    1986346  ISSUED:    1986346  USEFUL:      30287  USELESS:     432861
L2C AVERAGE MISS LATENCY: 148.88 cycles
LLC TOTAL     ACCESS:    2000127  HIT:     953433  MISS:    1046694
LLC LOAD      ACCESS:     460022  HIT:     156422  MISS:     303600
LLC RFO       ACCESS:      51346  HIT:      18350  MISS:      32996
LLC PREFETCH  ACCESS:    1155574  HIT:     451895  MISS:     703679
LLC WRITEBACK ACCESS:     333185  HIT:     326766  MISS:       6419
LLC PREFETCH  REQUESTED:          0  ISSUED:          0  USEFUL:      76992  USELESS:     628781
LLC AVERAGE MISS LATENCY: 176.059 cycles
Major fault: 0 Minor fault: 46163
CPU 0 L1D next line prefetcher final stats

DRAM Statistics
 CHANNEL 0
 RQ ROW_BUFFER_HIT:     105460  ROW_BUFFER_MISS:     934809
 DBUS_CONGESTED:     552999
 WQ ROW_BUFFER_HIT:      35845  ROW_BUFFER_MISS:     219970  FULL:          0

 AVG_CONGESTED_CYCLE: 5

CPU 0 Branch Prediction Accuracy: 98.2025% MPKI: 3.73946 Average ROB Occupancy at Mispredict: 94.3642

Branch types
NOT_BRANCH: 39597984 79.196%
BRANCH_DIRECT_JUMP: 567491 1.13498%
BRANCH_INDIRECT: 167850 0.3357%
BRANCH_CONDITIONAL: 6697264 13.3945%
BRANCH_DIRECT_CALL: 888054 1.77611%
BRANCH_INDIRECT_CALL: 596602 1.1932%
BRANCH_RETURN: 1484650 2.9693%
BRANCH_OTHER: 0 0%

