Initialize SIGNATURE TABLE
ST_SET: 1
ST_WAY: 256
ST_TAG_BIT: 16
ST_TAG_MASK: ffff

Initialize PATTERN TABLE
PT_SET: 512
PT_WAY: 4
SIG_DELTA_BIT: 7
C_SIG_BIT: 4
C_DELTA_BIT: 4

Initialize PREFETCH FILTER
FILTER_SET: 1024

*** ChampSim Multicore Out-of-Order Simulator ***

Warmup Instructions: 50000000
Simulation Instructions: 50000000
Number of CPUs: 1
LLC sets: 2048
LLC ways: 16
Off-chip DRAM Size: 4096 MB Channels: 1 Width: 64-bit Data Rate: 3200 MT/s

CPU 0 runs /home/ykhodke/ChampSim/dpc3_traces/621.wrf_s-575B.champsimtrace.xz
CPU 0 Temporal Ancestry L1I prefetcher
CPU 0 L1D next line prefetcher
Heartbeat CPU 0 instructions: 10000000 cycles: 4328660 heartbeat IPC: 2.31018 cumulative IPC: 2.31018 (Simulation time: 0 hr 0 min 19 sec) 
Heartbeat CPU 0 instructions: 20000002 cycles: 8673311 heartbeat IPC: 2.30168 cumulative IPC: 2.30592 (Simulation time: 0 hr 0 min 41 sec) 
Heartbeat CPU 0 instructions: 30000000 cycles: 13029333 heartbeat IPC: 2.29567 cumulative IPC: 2.3025 (Simulation time: 0 hr 1 min 4 sec) 
Heartbeat CPU 0 instructions: 40000002 cycles: 17381177 heartbeat IPC: 2.29788 cumulative IPC: 2.30134 (Simulation time: 0 hr 1 min 26 sec) 
Heartbeat CPU 0 instructions: 50000002 cycles: 21730891 heartbeat IPC: 2.299 cumulative IPC: 2.30087 (Simulation time: 0 hr 1 min 49 sec) 

Warmup complete CPU 0 instructions: 50000002 cycles: 21730891 (Simulation time: 0 hr 1 min 49 sec) 

Heartbeat CPU 0 instructions: 60000003 cycles: 30397831 heartbeat IPC: 1.15381 cumulative IPC: 1.15381 (Simulation time: 0 hr 2 min 11 sec) 
Heartbeat CPU 0 instructions: 70000000 cycles: 39038171 heartbeat IPC: 1.15736 cumulative IPC: 1.15558 (Simulation time: 0 hr 2 min 33 sec) 
Heartbeat CPU 0 instructions: 80000000 cycles: 47625082 heartbeat IPC: 1.16456 cumulative IPC: 1.15856 (Simulation time: 0 hr 2 min 55 sec) 
Heartbeat CPU 0 instructions: 90000000 cycles: 56268110 heartbeat IPC: 1.157 cumulative IPC: 1.15817 (Simulation time: 0 hr 3 min 16 sec) 
Heartbeat CPU 0 instructions: 100000001 cycles: 64878385 heartbeat IPC: 1.1614 cumulative IPC: 1.15882 (Simulation time: 0 hr 3 min 38 sec) 
Finished CPU 0 instructions: 50000000 cycles: 43147501 cumulative IPC: 1.15882 (Simulation time: 0 hr 3 min 38 sec) 

ChampSim completed all CPUs

Region of Interest Statistics

CPU 0 cumulative IPC: 1.15882 instructions: 50000000 cycles: 43147501
L1D TOTAL     ACCESS:   15293525  HIT:   15291976  MISS:       1549
L1D LOAD      ACCESS:    6687038  HIT:    6686750  MISS:        288
L1D RFO       ACCESS:    1925598  HIT:    1924843  MISS:        755
L1D PREFETCH  ACCESS:    6680889  HIT:    6680383  MISS:        506
L1D WRITEBACK ACCESS:          0  HIT:          0  MISS:          0
L1D PREFETCH  REQUESTED:    6687118  ISSUED:    6682319  USEFUL:        423  USELESS:         80
L1D AVERAGE MISS LATENCY: 134.298 cycles
L1I TOTAL     ACCESS:   10573309  HIT:   10572420  MISS:        889
L1I LOAD      ACCESS:   10572397  HIT:   10572284  MISS:        113
L1I RFO       ACCESS:          0  HIT:          0  MISS:          0
L1I PREFETCH  ACCESS:        912  HIT:        136  MISS:        776
L1I WRITEBACK ACCESS:          0  HIT:          0  MISS:          0
L1I PREFETCH  REQUESTED:       2100  ISSUED:       2100  USEFUL:        531  USELESS:        234
L1I AVERAGE MISS LATENCY: 14.4477 cycles
L2C TOTAL     ACCESS:       4119  HIT:       2649  MISS:       1470
L2C LOAD      ACCESS:        236  HIT:         77  MISS:        159
L2C RFO       ACCESS:        755  HIT:         23  MISS:        732
L2C PREFETCH  ACCESS:       2080  HIT:       1501  MISS:        579
L2C WRITEBACK ACCESS:       1048  HIT:       1048  MISS:          0
L2C PREFETCH  REQUESTED:       2794  ISSUED:       2794  USEFUL:         38  USELESS:          0
L2C AVERAGE MISS LATENCY: 137.335 cycles
LLC TOTAL     ACCESS:       2981  HIT:       1370  MISS:       1611
LLC LOAD      ACCESS:        159  HIT:         45  MISS:        114
LLC RFO       ACCESS:        732  HIT:         24  MISS:        708
LLC PREFETCH  ACCESS:       2090  HIT:       1301  MISS:        789
LLC WRITEBACK ACCESS:          0  HIT:          0  MISS:          0
LLC PREFETCH  REQUESTED:          0  ISSUED:          0  USEFUL:         69  USELESS:          0
LLC AVERAGE MISS LATENCY: 155.314 cycles
Major fault: 0 Minor fault: 197
CPU 0 L1D next line prefetcher final stats

DRAM Statistics
 CHANNEL 0
 RQ ROW_BUFFER_HIT:        485  ROW_BUFFER_MISS:       1126
 DBUS_CONGESTED:        555
 WQ ROW_BUFFER_HIT:          0  ROW_BUFFER_MISS:          0  FULL:          0

 AVG_CONGESTED_CYCLE: 5

CPU 0 Branch Prediction Accuracy: 99.6866% MPKI: 0.41812 Average ROB Occupancy at Mispredict: 263.283

Branch types
NOT_BRANCH: 43328386 86.6568%
BRANCH_DIRECT_JUMP: 484649 0.969298%
BRANCH_INDIRECT: 0 0%
BRANCH_CONDITIONAL: 5043854 10.0877%
BRANCH_DIRECT_CALL: 571556 1.14311%
BRANCH_INDIRECT_CALL: 0 0%
BRANCH_RETURN: 571556 1.14311%
BRANCH_OTHER: 0 0%

