Initialize SIGNATURE TABLE
ST_SET: 1
ST_WAY: 256
ST_TAG_BIT: 16
ST_TAG_MASK: ffff

Initialize PATTERN TABLE
PT_SET: 512
PT_WAY: 4
SIG_DELTA_BIT: 7
C_SIG_BIT: 4
C_DELTA_BIT: 4

Initialize PREFETCH FILTER
FILTER_SET: 1024

*** ChampSim Multicore Out-of-Order Simulator ***

Warmup Instructions: 50000000
Simulation Instructions: 50000000
Number of CPUs: 1
LLC sets: 2048
LLC ways: 16
Off-chip DRAM Size: 4096 MB Channels: 1 Width: 64-bit Data Rate: 3200 MT/s

CPU 0 runs /home/ykhodke/ChampSim/dpc3_traces/621.wrf_s-575B.champsimtrace.xz
CPU 0 L1I next line prefetcher
CPU 0 L1D next line prefetcher
Heartbeat CPU 0 instructions: 10000000 cycles: 4328661 heartbeat IPC: 2.31018 cumulative IPC: 2.31018 (Simulation time: 0 hr 0 min 12 sec) 
Heartbeat CPU 0 instructions: 20000002 cycles: 8673308 heartbeat IPC: 2.30168 cumulative IPC: 2.30593 (Simulation time: 0 hr 0 min 24 sec) 
Heartbeat CPU 0 instructions: 30000000 cycles: 13029330 heartbeat IPC: 2.29567 cumulative IPC: 2.3025 (Simulation time: 0 hr 0 min 36 sec) 
Heartbeat CPU 0 instructions: 40000002 cycles: 17381174 heartbeat IPC: 2.29788 cumulative IPC: 2.30134 (Simulation time: 0 hr 0 min 48 sec) 
Heartbeat CPU 0 instructions: 50000002 cycles: 21730888 heartbeat IPC: 2.299 cumulative IPC: 2.30087 (Simulation time: 0 hr 1 min 0 sec) 

Warmup complete CPU 0 instructions: 50000002 cycles: 21730888 (Simulation time: 0 hr 1 min 0 sec) 

Heartbeat CPU 0 instructions: 60000003 cycles: 30397703 heartbeat IPC: 1.15383 cumulative IPC: 1.15383 (Simulation time: 0 hr 1 min 13 sec) 
Heartbeat CPU 0 instructions: 70000000 cycles: 39038046 heartbeat IPC: 1.15736 cumulative IPC: 1.15559 (Simulation time: 0 hr 1 min 26 sec) 
Heartbeat CPU 0 instructions: 80000000 cycles: 47625011 heartbeat IPC: 1.16456 cumulative IPC: 1.15856 (Simulation time: 0 hr 1 min 39 sec) 
Heartbeat CPU 0 instructions: 90000000 cycles: 56267979 heartbeat IPC: 1.15701 cumulative IPC: 1.15818 (Simulation time: 0 hr 1 min 52 sec) 
Heartbeat CPU 0 instructions: 100000001 cycles: 64878297 heartbeat IPC: 1.1614 cumulative IPC: 1.15882 (Simulation time: 0 hr 2 min 5 sec) 
Finished CPU 0 instructions: 50000000 cycles: 43147416 cumulative IPC: 1.15882 (Simulation time: 0 hr 2 min 5 sec) 

ChampSim completed all CPUs

Region of Interest Statistics

CPU 0 cumulative IPC: 1.15882 instructions: 50000000 cycles: 43147416
L1D TOTAL     ACCESS:   15293577  HIT:   15292028  MISS:       1549
L1D LOAD      ACCESS:    6687059  HIT:    6686771  MISS:        288
L1D RFO       ACCESS:    1925600  HIT:    1924845  MISS:        755
L1D PREFETCH  ACCESS:    6680918  HIT:    6680412  MISS:        506
L1D WRITEBACK ACCESS:          0  HIT:          0  MISS:          0
L1D PREFETCH  REQUESTED:    6687138  ISSUED:    6682333  USEFUL:        423  USELESS:         80
L1D AVERAGE MISS LATENCY: 131.378 cycles
L1I TOTAL     ACCESS:   10580336  HIT:   10579970  MISS:        366
L1I LOAD      ACCESS:   10572375  HIT:   10572219  MISS:        156
L1I RFO       ACCESS:          0  HIT:          0  MISS:          0
L1I PREFETCH  ACCESS:       7961  HIT:       7751  MISS:        210
L1I WRITEBACK ACCESS:          0  HIT:          0  MISS:          0
L1I PREFETCH  REQUESTED:       8033  ISSUED:       8033  USEFUL:        210  USELESS:          0
L1I AVERAGE MISS LATENCY: 13.694 cycles
L2C TOTAL     ACCESS:       3475  HIT:       2010  MISS:       1465
L2C LOAD      ACCESS:        313  HIT:        154  MISS:        159
L2C RFO       ACCESS:        755  HIT:         29  MISS:        726
L2C PREFETCH  ACCESS:       1359  HIT:        779  MISS:        580
L2C WRITEBACK ACCESS:       1048  HIT:       1048  MISS:          0
L2C PREFETCH  REQUESTED:       3197  ISSUED:       3197  USEFUL:         26  USELESS:          0
L2C AVERAGE MISS LATENCY: 136.711 cycles
LLC TOTAL     ACCESS:       3281  HIT:       1671  MISS:       1610
LLC LOAD      ACCESS:        155  HIT:         44  MISS:        111
LLC RFO       ACCESS:        726  HIT:         16  MISS:        710
LLC PREFETCH  ACCESS:       2400  HIT:       1611  MISS:        789
LLC WRITEBACK ACCESS:          0  HIT:          0  MISS:          0
LLC PREFETCH  REQUESTED:          0  ISSUED:          0  USEFUL:         60  USELESS:          0
LLC AVERAGE MISS LATENCY: 154.704 cycles
Major fault: 0 Minor fault: 197
I-Shadow cache 408 bytes
Touched + WorthPF tables 24576 bytes 
MMA filter 174 bytes 
FNL filter 272 bytes 
TOTAL PREFETCHER STORAGE SIZE: 98134 bytes
CPU 0 L1I next line prefetcher final stats
CPU 0 L1D next line prefetcher final stats

DRAM Statistics
 CHANNEL 0
 RQ ROW_BUFFER_HIT:        503  ROW_BUFFER_MISS:       1107
 DBUS_CONGESTED:        631
 WQ ROW_BUFFER_HIT:          0  ROW_BUFFER_MISS:          0  FULL:          0

 AVG_CONGESTED_CYCLE: 6

CPU 0 Branch Prediction Accuracy: 99.6866% MPKI: 0.41812 Average ROB Occupancy at Mispredict: 263.271

Branch types
NOT_BRANCH: 43328386 86.6568%
BRANCH_DIRECT_JUMP: 484649 0.969298%
BRANCH_INDIRECT: 0 0%
BRANCH_CONDITIONAL: 5043854 10.0877%
BRANCH_DIRECT_CALL: 571556 1.14311%
BRANCH_INDIRECT_CALL: 0 0%
BRANCH_RETURN: 571556 1.14311%
BRANCH_OTHER: 0 0%

