Initialize SIGNATURE TABLE
ST_SET: 1
ST_WAY: 256
ST_TAG_BIT: 16
ST_TAG_MASK: ffff

Initialize PATTERN TABLE
PT_SET: 512
PT_WAY: 4
SIG_DELTA_BIT: 7
C_SIG_BIT: 4
C_DELTA_BIT: 4

Initialize PREFETCH FILTER
FILTER_SET: 1024

*** ChampSim Multicore Out-of-Order Simulator ***

Warmup Instructions: 50000000
Simulation Instructions: 50000000
Number of CPUs: 1
LLC sets: 2048
LLC ways: 16
Off-chip DRAM Size: 4096 MB Channels: 1 Width: 64-bit Data Rate: 3200 MT/s

CPU 0 runs /home/ykhodke/ChampSim/dpc3_traces/623.xalancbmk_s-700B.champsimtrace.xz
CPU 0 Temporal Ancestry L1I prefetcher
CPU 0 L1D next line prefetcher
Heartbeat CPU 0 instructions: 10000002 cycles: 5016016 heartbeat IPC: 1.99361 cumulative IPC: 1.99361 (Simulation time: 0 hr 0 min 28 sec) 
Heartbeat CPU 0 instructions: 20000001 cycles: 9400597 heartbeat IPC: 2.28072 cumulative IPC: 2.12752 (Simulation time: 0 hr 0 min 52 sec) 
Heartbeat CPU 0 instructions: 30000000 cycles: 14458574 heartbeat IPC: 1.97707 cumulative IPC: 2.07489 (Simulation time: 0 hr 1 min 28 sec) 
Heartbeat CPU 0 instructions: 40000002 cycles: 19696546 heartbeat IPC: 1.90914 cumulative IPC: 2.03081 (Simulation time: 0 hr 2 min 10 sec) 
Heartbeat CPU 0 instructions: 50000002 cycles: 24837365 heartbeat IPC: 1.94522 cumulative IPC: 2.0131 (Simulation time: 0 hr 2 min 50 sec) 

Warmup complete CPU 0 instructions: 50000002 cycles: 24837365 (Simulation time: 0 hr 2 min 50 sec) 

Heartbeat CPU 0 instructions: 60000003 cycles: 36244743 heartbeat IPC: 0.876626 cumulative IPC: 0.876626 (Simulation time: 0 hr 3 min 17 sec) 
Heartbeat CPU 0 instructions: 70000002 cycles: 50801061 heartbeat IPC: 0.686987 cumulative IPC: 0.770306 (Simulation time: 0 hr 3 min 44 sec) 
Heartbeat CPU 0 instructions: 80000000 cycles: 70471284 heartbeat IPC: 0.508383 cumulative IPC: 0.657406 (Simulation time: 0 hr 4 min 26 sec) 
Heartbeat CPU 0 instructions: 90000000 cycles: 87308655 heartbeat IPC: 0.593917 cumulative IPC: 0.640294 (Simulation time: 0 hr 5 min 8 sec) 
Heartbeat CPU 0 instructions: 100000001 cycles: 106548534 heartbeat IPC: 0.519754 cumulative IPC: 0.611911 (Simulation time: 0 hr 5 min 55 sec) 
Finished CPU 0 instructions: 50000001 cycles: 81711171 cumulative IPC: 0.611911 (Simulation time: 0 hr 5 min 55 sec) 

ChampSim completed all CPUs

Region of Interest Statistics

CPU 0 cumulative IPC: 0.611911 instructions: 50000001 cycles: 81711171
L1D TOTAL     ACCESS:   18907064  HIT:   14743988  MISS:    4163076
L1D LOAD      ACCESS:    8313813  HIT:    5937302  MISS:    2376511
L1D RFO       ACCESS:    3132871  HIT:    3100984  MISS:      31887
L1D PREFETCH  ACCESS:    7460380  HIT:    5705702  MISS:    1754678
L1D WRITEBACK ACCESS:          0  HIT:          0  MISS:          0
L1D PREFETCH  REQUESTED:    8401539  ISSUED:    8234172  USEFUL:     392930  USELESS:    1361637
L1D AVERAGE MISS LATENCY: 21.8798 cycles
L1I TOTAL     ACCESS:   14617766  HIT:   13303053  MISS:    1314713
L1I LOAD      ACCESS:   12998405  HIT:   12990454  MISS:       7951
L1I RFO       ACCESS:          0  HIT:          0  MISS:          0
L1I PREFETCH  ACCESS:    1619361  HIT:     312599  MISS:    1306762
L1I WRITEBACK ACCESS:          0  HIT:          0  MISS:          0
L1I PREFETCH  REQUESTED:    2890606  ISSUED:    2890373  USEFUL:     510754  USELESS:     796011
L1I AVERAGE MISS LATENCY: 15.7481 cycles
L2C TOTAL     ACCESS:    7960883  HIT:    7391698  MISS:     569185
L2C LOAD      ACCESS:    2271073  HIT:    1979605  MISS:     291468
L2C RFO       ACCESS:      31585  HIT:       8850  MISS:      22735
L2C PREFETCH  ACCESS:    5572508  HIT:    5317530  MISS:     254978
L2C WRITEBACK ACCESS:      85717  HIT:      85713  MISS:          4
L2C PREFETCH  REQUESTED:    6852067  ISSUED:    6851497  USEFUL:       8973  USELESS:     246225
L2C AVERAGE MISS LATENCY: 46.0705 cycles
LLC TOTAL     ACCESS:    2641145  HIT:    2547123  MISS:      94022
LLC LOAD      ACCESS:     291137  HIT:     275778  MISS:      15359
LLC RFO       ACCESS:      22735  HIT:       8261  MISS:      14474
LLC PREFETCH  ACCESS:    2275795  HIT:    2212795  MISS:      63000
LLC WRITEBACK ACCESS:      51478  HIT:      50289  MISS:       1189
LLC PREFETCH  REQUESTED:          0  ISSUED:          0  USEFUL:       6656  USELESS:      52366
LLC AVERAGE MISS LATENCY: 171.745 cycles
Major fault: 0 Minor fault: 3572
CPU 0 L1D next line prefetcher final stats

DRAM Statistics
 CHANNEL 0
 RQ ROW_BUFFER_HIT:      15475  ROW_BUFFER_MISS:      77357
 DBUS_CONGESTED:      39334
 WQ ROW_BUFFER_HIT:       5128  ROW_BUFFER_MISS:      31820  FULL:          0

 AVG_CONGESTED_CYCLE: 5

CPU 0 Branch Prediction Accuracy: 99.7227% MPKI: 0.78238 Average ROB Occupancy at Mispredict: 146.646

Branch types
NOT_BRANCH: 35891713 71.7834%
BRANCH_DIRECT_JUMP: 408140 0.81628%
BRANCH_INDIRECT: 152644 0.305288%
BRANCH_CONDITIONAL: 12052504 24.105%
BRANCH_DIRECT_CALL: 454801 0.909602%
BRANCH_INDIRECT_CALL: 292700 0.5854%
BRANCH_RETURN: 747496 1.49499%
BRANCH_OTHER: 0 0%

