Initialize SIGNATURE TABLE
ST_SET: 1
ST_WAY: 256
ST_TAG_BIT: 16
ST_TAG_MASK: ffff

Initialize PATTERN TABLE
PT_SET: 512
PT_WAY: 4
SIG_DELTA_BIT: 7
C_SIG_BIT: 4
C_DELTA_BIT: 4

Initialize PREFETCH FILTER
FILTER_SET: 1024

*** ChampSim Multicore Out-of-Order Simulator ***

Warmup Instructions: 50000000
Simulation Instructions: 50000000
Number of CPUs: 1
LLC sets: 2048
LLC ways: 16
Off-chip DRAM Size: 4096 MB Channels: 1 Width: 64-bit Data Rate: 3200 MT/s

CPU 0 runs /home/ykhodke/ChampSim/dpc3_traces/625.x264_s-18B.champsimtrace.xz
CPU 0 Temporal Ancestry L1I prefetcher
CPU 0 L1D next line prefetcher
Heartbeat CPU 0 instructions: 10000001 cycles: 3382984 heartbeat IPC: 2.95597 cumulative IPC: 2.95597 (Simulation time: 0 hr 0 min 15 sec) 
Heartbeat CPU 0 instructions: 20000000 cycles: 6779356 heartbeat IPC: 2.94432 cumulative IPC: 2.95013 (Simulation time: 0 hr 0 min 31 sec) 
Heartbeat CPU 0 instructions: 30000000 cycles: 10161190 heartbeat IPC: 2.95698 cumulative IPC: 2.95241 (Simulation time: 0 hr 0 min 47 sec) 
Heartbeat CPU 0 instructions: 40000002 cycles: 13534717 heartbeat IPC: 2.96426 cumulative IPC: 2.95536 (Simulation time: 0 hr 1 min 3 sec) 
Heartbeat CPU 0 instructions: 50000003 cycles: 16903053 heartbeat IPC: 2.96883 cumulative IPC: 2.95805 (Simulation time: 0 hr 1 min 19 sec) 

Warmup complete CPU 0 instructions: 50000003 cycles: 16903053 (Simulation time: 0 hr 1 min 19 sec) 

Heartbeat CPU 0 instructions: 60000001 cycles: 22511242 heartbeat IPC: 1.78311 cumulative IPC: 1.78311 (Simulation time: 0 hr 1 min 32 sec) 
Heartbeat CPU 0 instructions: 70000000 cycles: 28135263 heartbeat IPC: 1.77809 cumulative IPC: 1.78059 (Simulation time: 0 hr 1 min 45 sec) 
Heartbeat CPU 0 instructions: 80000000 cycles: 33764866 heartbeat IPC: 1.77632 cumulative IPC: 1.77917 (Simulation time: 0 hr 1 min 57 sec) 
Heartbeat CPU 0 instructions: 90000002 cycles: 39404507 heartbeat IPC: 1.77316 cumulative IPC: 1.77766 (Simulation time: 0 hr 2 min 10 sec) 
Heartbeat CPU 0 instructions: 100000001 cycles: 45038449 heartbeat IPC: 1.77496 cumulative IPC: 1.77712 (Simulation time: 0 hr 2 min 23 sec) 
Finished CPU 0 instructions: 50000002 cycles: 28135397 cumulative IPC: 1.77712 (Simulation time: 0 hr 2 min 23 sec) 

ChampSim completed all CPUs

Region of Interest Statistics

CPU 0 cumulative IPC: 1.77712 instructions: 50000002 cycles: 28135397
L1D TOTAL     ACCESS:   10998887  HIT:   10981069  MISS:      17818
L1D LOAD      ACCESS:    3913802  HIT:    3898399  MISS:      15403
L1D RFO       ACCESS:    3265011  HIT:    3264524  MISS:        487
L1D PREFETCH  ACCESS:    3820074  HIT:    3818146  MISS:       1928
L1D WRITEBACK ACCESS:          0  HIT:          0  MISS:          0
L1D PREFETCH  REQUESTED:    3918233  ISSUED:    3827321  USEFUL:        316  USELESS:       1618
L1D AVERAGE MISS LATENCY: 84.5627 cycles
L1I TOTAL     ACCESS:    8054739  HIT:    8054739  MISS:          0
L1I LOAD      ACCESS:    8054739  HIT:    8054739  MISS:          0
L1I RFO       ACCESS:          0  HIT:          0  MISS:          0
L1I PREFETCH  ACCESS:          0  HIT:          0  MISS:          0
L1I WRITEBACK ACCESS:          0  HIT:          0  MISS:          0
L1I PREFETCH  REQUESTED:          0  ISSUED:          0  USEFUL:          0  USELESS:          0
L1I AVERAGE MISS LATENCY: -nan cycles
L2C TOTAL     ACCESS:      29076  HIT:      13942  MISS:      15134
L2C LOAD      ACCESS:      15381  HIT:       3472  MISS:      11909
L2C RFO       ACCESS:        486  HIT:         28  MISS:        458
L2C PREFETCH  ACCESS:      12725  HIT:       9961  MISS:       2764
L2C WRITEBACK ACCESS:        484  HIT:        481  MISS:          3
L2C PREFETCH  REQUESTED:      44057  ISSUED:      43985  USEFUL:       1841  USELESS:        945
L2C AVERAGE MISS LATENCY: 87.0743 cycles
LLC TOTAL     ACCESS:      30945  HIT:      16211  MISS:      14734
LLC LOAD      ACCESS:      10348  HIT:       5775  MISS:       4573
LLC RFO       ACCESS:        458  HIT:         40  MISS:        418
LLC PREFETCH  ACCESS:      19665  HIT:       9922  MISS:       9743
LLC WRITEBACK ACCESS:        474  HIT:        474  MISS:          0
LLC PREFETCH  REQUESTED:          0  ISSUED:          0  USEFUL:       5414  USELESS:        680
LLC AVERAGE MISS LATENCY: 131.65 cycles
Major fault: 0 Minor fault: 671
CPU 0 L1D next line prefetcher final stats

DRAM Statistics
 CHANNEL 0
 RQ ROW_BUFFER_HIT:       7507  ROW_BUFFER_MISS:       7227
 DBUS_CONGESTED:       5315
 WQ ROW_BUFFER_HIT:         13  ROW_BUFFER_MISS:         51  FULL:          0

 AVG_CONGESTED_CYCLE: 6

CPU 0 Branch Prediction Accuracy: 99.695% MPKI: 0.12886 Average ROB Occupancy at Mispredict: 60.648

Branch types
NOT_BRANCH: 47887571 95.7751%
BRANCH_DIRECT_JUMP: 36263 0.072526%
BRANCH_INDIRECT: 3236 0.006472%
BRANCH_CONDITIONAL: 1791513 3.58303%
BRANCH_DIRECT_CALL: 71355 0.14271%
BRANCH_INDIRECT_CALL: 69258 0.138516%
BRANCH_RETURN: 140613 0.281226%
BRANCH_OTHER: 0 0%

