Initialize SIGNATURE TABLE
ST_SET: 1
ST_WAY: 256
ST_TAG_BIT: 16
ST_TAG_MASK: ffff

Initialize PATTERN TABLE
PT_SET: 512
PT_WAY: 4
SIG_DELTA_BIT: 7
C_SIG_BIT: 4
C_DELTA_BIT: 4

Initialize PREFETCH FILTER
FILTER_SET: 1024

*** ChampSim Multicore Out-of-Order Simulator ***

Warmup Instructions: 50000000
Simulation Instructions: 50000000
Number of CPUs: 1
LLC sets: 2048
LLC ways: 16
Off-chip DRAM Size: 4096 MB Channels: 1 Width: 64-bit Data Rate: 3200 MT/s

CPU 0 runs /home/ykhodke/ChampSim/dpc3_traces/627.cam4_s-573B.champsimtrace.xz
CPU 0 Temporal Ancestry L1I prefetcher
CPU 0 L1D next line prefetcher
Heartbeat CPU 0 instructions: 10000003 cycles: 3427676 heartbeat IPC: 2.91743 cumulative IPC: 2.91743 (Simulation time: 0 hr 0 min 18 sec) 
Heartbeat CPU 0 instructions: 20000001 cycles: 6664842 heartbeat IPC: 3.08912 cumulative IPC: 3.00082 (Simulation time: 0 hr 0 min 50 sec) 
Heartbeat CPU 0 instructions: 30000003 cycles: 9895521 heartbeat IPC: 3.09533 cumulative IPC: 3.03167 (Simulation time: 0 hr 1 min 22 sec) 
Heartbeat CPU 0 instructions: 40000003 cycles: 13065174 heartbeat IPC: 3.15492 cumulative IPC: 3.06157 (Simulation time: 0 hr 1 min 54 sec) 
Heartbeat CPU 0 instructions: 50000002 cycles: 16392861 heartbeat IPC: 3.00509 cumulative IPC: 3.05011 (Simulation time: 0 hr 2 min 27 sec) 

Warmup complete CPU 0 instructions: 50000002 cycles: 16392861 (Simulation time: 0 hr 2 min 27 sec) 

Heartbeat CPU 0 instructions: 60000003 cycles: 23172751 heartbeat IPC: 1.47495 cumulative IPC: 1.47495 (Simulation time: 0 hr 2 min 54 sec) 
Heartbeat CPU 0 instructions: 70000000 cycles: 29684825 heartbeat IPC: 1.53561 cumulative IPC: 1.50467 (Simulation time: 0 hr 3 min 21 sec) 
Heartbeat CPU 0 instructions: 80000002 cycles: 36639611 heartbeat IPC: 1.43786 cumulative IPC: 1.48172 (Simulation time: 0 hr 3 min 56 sec) 
Heartbeat CPU 0 instructions: 90000003 cycles: 44181206 heartbeat IPC: 1.32598 cumulative IPC: 1.43945 (Simulation time: 0 hr 4 min 39 sec) 
Heartbeat CPU 0 instructions: 100000000 cycles: 52371585 heartbeat IPC: 1.22094 cumulative IPC: 1.38971 (Simulation time: 0 hr 5 min 42 sec) 
Finished CPU 0 instructions: 50000000 cycles: 35978726 cumulative IPC: 1.38971 (Simulation time: 0 hr 5 min 42 sec) 

ChampSim completed all CPUs

Region of Interest Statistics

CPU 0 cumulative IPC: 1.38971 instructions: 50000000 cycles: 35978726
L1D TOTAL     ACCESS:   17269096  HIT:   16791694  MISS:     477402
L1D LOAD      ACCESS:    6883338  HIT:    6752941  MISS:     130397
L1D RFO       ACCESS:    3785608  HIT:    3629696  MISS:     155912
L1D PREFETCH  ACCESS:    6600150  HIT:    6409057  MISS:     191093
L1D WRITEBACK ACCESS:          0  HIT:          0  MISS:          0
L1D PREFETCH  REQUESTED:    6914769  ISSUED:    6741433  USEFUL:     124356  USELESS:      66935
L1D AVERAGE MISS LATENCY: 51.6287 cycles
L1I TOTAL     ACCESS:    9157221  HIT:    8900511  MISS:     256710
L1I LOAD      ACCESS:    8678880  HIT:    8668246  MISS:      10634
L1I RFO       ACCESS:          0  HIT:          0  MISS:          0
L1I PREFETCH  ACCESS:     478341  HIT:     232265  MISS:     246076
L1I WRITEBACK ACCESS:          0  HIT:          0  MISS:          0
L1I PREFETCH  REQUESTED:     848832  ISSUED:     846807  USEFUL:      73736  USELESS:     172227
L1I AVERAGE MISS LATENCY: 19.1786 cycles
L2C TOTAL     ACCESS:    1451297  HIT:    1329979  MISS:     121318
L2C LOAD      ACCESS:      98884  HIT:      81106  MISS:      17778
L2C RFO       ACCESS:     155652  HIT:     106115  MISS:      49537
L2C PREFETCH  ACCESS:    1004672  HIT:     950722  MISS:      53950
L2C WRITEBACK ACCESS:     192089  HIT:     192036  MISS:         53
L2C PREFETCH  REQUESTED:     874104  ISSUED:     864447  USEFUL:      13894  USELESS:      41974
L2C AVERAGE MISS LATENCY: 165.517 cycles
LLC TOTAL     ACCESS:     306381  HIT:     212261  MISS:      94120
LLC LOAD      ACCESS:      17754  HIT:       6903  MISS:      10851
LLC RFO       ACCESS:      49538  HIT:       6583  MISS:      42955
LLC PREFETCH  ACCESS:     191801  HIT:     152473  MISS:      39328
LLC WRITEBACK ACCESS:      47288  HIT:      46302  MISS:        986
LLC PREFETCH  REQUESTED:          0  ISSUED:          0  USEFUL:       4252  USELESS:      41978
LLC AVERAGE MISS LATENCY: 224.011 cycles
Major fault: 0 Minor fault: 4522
CPU 0 L1D next line prefetcher final stats

DRAM Statistics
 CHANNEL 0
 RQ ROW_BUFFER_HIT:      39502  ROW_BUFFER_MISS:      53618
 DBUS_CONGESTED:      69807
 WQ ROW_BUFFER_HIT:       7834  ROW_BUFFER_MISS:      30110  FULL:          0

 AVG_CONGESTED_CYCLE: 6

CPU 0 Branch Prediction Accuracy: 99.1543% MPKI: 1.34152 Average ROB Occupancy at Mispredict: 65.2617

Branch types
NOT_BRANCH: 42068125 84.1363%
BRANCH_DIRECT_JUMP: 424687 0.849374%
BRANCH_INDIRECT: 4954 0.009908%
BRANCH_CONDITIONAL: 7000589 14.0012%
BRANCH_DIRECT_CALL: 250822 0.501644%
BRANCH_INDIRECT_CALL: 0 0%
BRANCH_RETURN: 250827 0.501654%
BRANCH_OTHER: 0 0%

