Initialize SIGNATURE TABLE
ST_SET: 1
ST_WAY: 256
ST_TAG_BIT: 16
ST_TAG_MASK: ffff

Initialize PATTERN TABLE
PT_SET: 512
PT_WAY: 4
SIG_DELTA_BIT: 7
C_SIG_BIT: 4
C_DELTA_BIT: 4

Initialize PREFETCH FILTER
FILTER_SET: 1024

*** ChampSim Multicore Out-of-Order Simulator ***

Warmup Instructions: 50000000
Simulation Instructions: 50000000
Number of CPUs: 1
LLC sets: 2048
LLC ways: 16
Off-chip DRAM Size: 4096 MB Channels: 1 Width: 64-bit Data Rate: 3200 MT/s

CPU 0 runs /home/ykhodke/ChampSim/dpc3_traces/627.cam4_s-573B.champsimtrace.xz
CPU 0 L1I next line prefetcher
CPU 0 L1D next line prefetcher
Heartbeat CPU 0 instructions: 10000003 cycles: 3427623 heartbeat IPC: 2.91747 cumulative IPC: 2.91747 (Simulation time: 0 hr 0 min 10 sec) 
Heartbeat CPU 0 instructions: 20000001 cycles: 6664778 heartbeat IPC: 3.08913 cumulative IPC: 3.00085 (Simulation time: 0 hr 0 min 22 sec) 
Heartbeat CPU 0 instructions: 30000003 cycles: 9895394 heartbeat IPC: 3.09539 cumulative IPC: 3.03171 (Simulation time: 0 hr 0 min 33 sec) 
Heartbeat CPU 0 instructions: 40000003 cycles: 13064985 heartbeat IPC: 3.15498 cumulative IPC: 3.06162 (Simulation time: 0 hr 0 min 44 sec) 
Heartbeat CPU 0 instructions: 50000002 cycles: 16392686 heartbeat IPC: 3.00508 cumulative IPC: 3.05014 (Simulation time: 0 hr 0 min 56 sec) 

Warmup complete CPU 0 instructions: 50000002 cycles: 16392686 (Simulation time: 0 hr 0 min 56 sec) 

Heartbeat CPU 0 instructions: 60000003 cycles: 23170390 heartbeat IPC: 1.47543 cumulative IPC: 1.47543 (Simulation time: 0 hr 1 min 7 sec) 
Heartbeat CPU 0 instructions: 70000000 cycles: 29680101 heartbeat IPC: 1.53617 cumulative IPC: 1.50518 (Simulation time: 0 hr 1 min 18 sec) 
Heartbeat CPU 0 instructions: 80000002 cycles: 36637338 heartbeat IPC: 1.43735 cumulative IPC: 1.48187 (Simulation time: 0 hr 1 min 28 sec) 
Heartbeat CPU 0 instructions: 90000003 cycles: 44184209 heartbeat IPC: 1.32505 cumulative IPC: 1.43929 (Simulation time: 0 hr 1 min 39 sec) 
Heartbeat CPU 0 instructions: 100000000 cycles: 52349038 heartbeat IPC: 1.22477 cumulative IPC: 1.39057 (Simulation time: 0 hr 1 min 50 sec) 
Finished CPU 0 instructions: 50000000 cycles: 35956354 cumulative IPC: 1.39057 (Simulation time: 0 hr 1 min 50 sec) 

ChampSim completed all CPUs

Region of Interest Statistics

CPU 0 cumulative IPC: 1.39057 instructions: 50000000 cycles: 35956354
L1D TOTAL     ACCESS:   17273076  HIT:   16795694  MISS:     477382
L1D LOAD      ACCESS:    6883403  HIT:    6753895  MISS:     129508
L1D RFO       ACCESS:    3787732  HIT:    3631837  MISS:     155895
L1D PREFETCH  ACCESS:    6601941  HIT:    6409962  MISS:     191979
L1D WRITEBACK ACCESS:          0  HIT:          0  MISS:          0
L1D PREFETCH  REQUESTED:    6914408  ISSUED:    6741023  USEFUL:     125248  USELESS:      66929
L1D AVERAGE MISS LATENCY: 49.3527 cycles
L1I TOTAL     ACCESS:    8925064  HIT:    8889897  MISS:      35167
L1I LOAD      ACCESS:    8668399  HIT:    8655881  MISS:      12518
L1I RFO       ACCESS:          0  HIT:          0  MISS:          0
L1I PREFETCH  ACCESS:     256665  HIT:     234016  MISS:      22649
L1I WRITEBACK ACCESS:          0  HIT:          0  MISS:          0
L1I PREFETCH  REQUESTED:     261603  ISSUED:     261603  USEFUL:      12651  USELESS:      10006
L1I AVERAGE MISS LATENCY: 29.9655 cycles
L2C TOTAL     ACCESS:    1192914  HIT:    1083277  MISS:     109637
L2C LOAD      ACCESS:     104348  HIT:      82082  MISS:      22266
L2C RFO       ACCESS:     155647  HIT:     107721  MISS:      47926
L2C PREFETCH  ACCESS:     740833  HIT:     701400  MISS:      39433
L2C WRITEBACK ACCESS:     192086  HIT:     192074  MISS:         12
L2C PREFETCH  REQUESTED:     805858  ISSUED:     795397  USEFUL:      14756  USELESS:      26220
L2C AVERAGE MISS LATENCY: 164.097 cycles
LLC TOTAL     ACCESS:     259380  HIT:     168135  MISS:      91245
LLC LOAD      ACCESS:      21774  HIT:      10551  MISS:      11223
LLC RFO       ACCESS:      47927  HIT:       5183  MISS:      42744
LLC PREFETCH  ACCESS:     144744  HIT:     108615  MISS:      36129
LLC WRITEBACK ACCESS:      44935  HIT:      43786  MISS:       1149
LLC PREFETCH  REQUESTED:          0  ISSUED:          0  USEFUL:       8334  USELESS:      35962
LLC AVERAGE MISS LATENCY: 216.522 cycles
Major fault: 0 Minor fault: 4521
I-Shadow cache 408 bytes
Touched + WorthPF tables 24576 bytes 
MMA filter 174 bytes 
FNL filter 272 bytes 
TOTAL PREFETCHER STORAGE SIZE: 98134 bytes
CPU 0 L1I next line prefetcher final stats
CPU 0 L1D next line prefetcher final stats

DRAM Statistics
 CHANNEL 0
 RQ ROW_BUFFER_HIT:      41307  ROW_BUFFER_MISS:      48777
 DBUS_CONGESTED:      69176
 WQ ROW_BUFFER_HIT:       7489  ROW_BUFFER_MISS:      28895  FULL:          0

 AVG_CONGESTED_CYCLE: 6

CPU 0 Branch Prediction Accuracy: 99.1543% MPKI: 1.34152 Average ROB Occupancy at Mispredict: 65.2395

Branch types
NOT_BRANCH: 42068125 84.1363%
BRANCH_DIRECT_JUMP: 424687 0.849374%
BRANCH_INDIRECT: 4954 0.009908%
BRANCH_CONDITIONAL: 7000588 14.0012%
BRANCH_DIRECT_CALL: 250822 0.501644%
BRANCH_INDIRECT_CALL: 0 0%
BRANCH_RETURN: 250827 0.501654%
BRANCH_OTHER: 0 0%

