Initialize SIGNATURE TABLE
ST_SET: 1
ST_WAY: 256
ST_TAG_BIT: 16
ST_TAG_MASK: ffff

Initialize PATTERN TABLE
PT_SET: 512
PT_WAY: 4
SIG_DELTA_BIT: 7
C_SIG_BIT: 4
C_DELTA_BIT: 4

Initialize PREFETCH FILTER
FILTER_SET: 1024

*** ChampSim Multicore Out-of-Order Simulator ***

Warmup Instructions: 50000000
Simulation Instructions: 50000000
Number of CPUs: 1
LLC sets: 2048
LLC ways: 16
Off-chip DRAM Size: 4096 MB Channels: 1 Width: 64-bit Data Rate: 3200 MT/s

CPU 0 runs /home/ykhodke/ChampSim/dpc3_traces/628.pop2_s-17B.champsimtrace.xz
CPU 0 L1I next line prefetcher
CPU 0 L1D next line prefetcher
Heartbeat CPU 0 instructions: 10000003 cycles: 3394944 heartbeat IPC: 2.94556 cumulative IPC: 2.94556 (Simulation time: 0 hr 0 min 11 sec) 
Heartbeat CPU 0 instructions: 20000001 cycles: 6788906 heartbeat IPC: 2.94641 cumulative IPC: 2.94598 (Simulation time: 0 hr 0 min 21 sec) 
Heartbeat CPU 0 instructions: 30000003 cycles: 10181608 heartbeat IPC: 2.9475 cumulative IPC: 2.94649 (Simulation time: 0 hr 0 min 32 sec) 
Heartbeat CPU 0 instructions: 40000001 cycles: 13571961 heartbeat IPC: 2.94954 cumulative IPC: 2.94725 (Simulation time: 0 hr 0 min 43 sec) 
Heartbeat CPU 0 instructions: 50000002 cycles: 16955196 heartbeat IPC: 2.95575 cumulative IPC: 2.94895 (Simulation time: 0 hr 0 min 53 sec) 

Warmup complete CPU 0 instructions: 50000002 cycles: 16955196 (Simulation time: 0 hr 0 min 53 sec) 

Heartbeat CPU 0 instructions: 60000001 cycles: 23184088 heartbeat IPC: 1.60542 cumulative IPC: 1.60542 (Simulation time: 0 hr 1 min 2 sec) 
Heartbeat CPU 0 instructions: 70000002 cycles: 29356577 heartbeat IPC: 1.62009 cumulative IPC: 1.61272 (Simulation time: 0 hr 1 min 11 sec) 
Heartbeat CPU 0 instructions: 80000000 cycles: 35855939 heartbeat IPC: 1.53861 cumulative IPC: 1.58724 (Simulation time: 0 hr 1 min 19 sec) 
Heartbeat CPU 0 instructions: 90000003 cycles: 43394789 heartbeat IPC: 1.32646 cumulative IPC: 1.51288 (Simulation time: 0 hr 1 min 28 sec) 
Heartbeat CPU 0 instructions: 100000001 cycles: 49917833 heartbeat IPC: 1.53303 cumulative IPC: 1.51687 (Simulation time: 0 hr 1 min 37 sec) 
Finished CPU 0 instructions: 50000003 cycles: 32962638 cumulative IPC: 1.51687 (Simulation time: 0 hr 1 min 37 sec) 

ChampSim completed all CPUs

Region of Interest Statistics

CPU 0 cumulative IPC: 1.51687 instructions: 50000003 cycles: 32962638
L1D TOTAL     ACCESS:   17165224  HIT:   16306174  MISS:     859050
L1D LOAD      ACCESS:    7520375  HIT:    7354573  MISS:     165802
L1D RFO       ACCESS:    2964346  HIT:    2675641  MISS:     288705
L1D PREFETCH  ACCESS:    6680503  HIT:    6275960  MISS:     404543
L1D WRITEBACK ACCESS:          0  HIT:          0  MISS:          0
L1D PREFETCH  REQUESTED:    7626474  ISSUED:    7290351  USEFUL:     361833  USELESS:      42734
L1D AVERAGE MISS LATENCY: 32.7833 cycles
L1I TOTAL     ACCESS:    9131093  HIT:    9105404  MISS:      25689
L1I LOAD      ACCESS:    9098448  HIT:    9093806  MISS:       4642
L1I RFO       ACCESS:          0  HIT:          0  MISS:          0
L1I PREFETCH  ACCESS:      32645  HIT:      11598  MISS:      21047
L1I WRITEBACK ACCESS:          0  HIT:          0  MISS:          0
L1I PREFETCH  REQUESTED:      36825  ISSUED:      36825  USEFUL:      19994  USELESS:       1048
L1I AVERAGE MISS LATENCY: 41.7914 cycles
L2C TOTAL     ACCESS:    2135835  HIT:    1814397  MISS:     321438
L2C LOAD      ACCESS:      76126  HIT:      49691  MISS:      26435
L2C RFO       ACCESS:     288666  HIT:     207085  MISS:      81581
L2C PREFETCH  ACCESS:    1389997  HIT:    1176963  MISS:     213034
L2C WRITEBACK ACCESS:     381046  HIT:     380658  MISS:        388
L2C PREFETCH  REQUESTED:    1706576  ISSUED:    1643138  USEFUL:       9534  USELESS:     202482
L2C AVERAGE MISS LATENCY: 76.6958 cycles
LLC TOTAL     ACCESS:     884989  HIT:     713539  MISS:     171450
LLC LOAD      ACCESS:      26324  HIT:      19540  MISS:       6784
LLC RFO       ACCESS:      81581  HIT:      39312  MISS:      42269
LLC PREFETCH  ACCESS:     642281  HIT:     522029  MISS:     120252
LLC WRITEBACK ACCESS:     134803  HIT:     132658  MISS:       2145
LLC PREFETCH  REQUESTED:          0  ISSUED:          0  USEFUL:       6698  USELESS:     124075
LLC AVERAGE MISS LATENCY: 172.18 cycles
Major fault: 0 Minor fault: 5186
I-Shadow cache 408 bytes
Touched + WorthPF tables 24576 bytes 
MMA filter 174 bytes 
FNL filter 272 bytes 
TOTAL PREFETCHER STORAGE SIZE: 98134 bytes
CPU 0 L1I next line prefetcher final stats
CPU 0 L1D next line prefetcher final stats

DRAM Statistics
 CHANNEL 0
 RQ ROW_BUFFER_HIT:      69406  ROW_BUFFER_MISS:      99863
 DBUS_CONGESTED:      92648
 WQ ROW_BUFFER_HIT:      19234  ROW_BUFFER_MISS:      41346  FULL:          0

 AVG_CONGESTED_CYCLE: 6

CPU 0 Branch Prediction Accuracy: 99.1448% MPKI: 1.03648 Average ROB Occupancy at Mispredict: 34.9283

Branch types
NOT_BRANCH: 43939618 87.8792%
BRANCH_DIRECT_JUMP: 214980 0.42996%
BRANCH_INDIRECT: 2007 0.004014%
BRANCH_CONDITIONAL: 5640873 11.2817%
BRANCH_DIRECT_CALL: 101143 0.202286%
BRANCH_INDIRECT_CALL: 0 0%
BRANCH_RETURN: 101145 0.20229%
BRANCH_OTHER: 0 0%

