Initialize SIGNATURE TABLE
ST_SET: 1
ST_WAY: 256
ST_TAG_BIT: 16
ST_TAG_MASK: ffff

Initialize PATTERN TABLE
PT_SET: 512
PT_WAY: 4
SIG_DELTA_BIT: 7
C_SIG_BIT: 4
C_DELTA_BIT: 4

Initialize PREFETCH FILTER
FILTER_SET: 1024

*** ChampSim Multicore Out-of-Order Simulator ***

Warmup Instructions: 50000000
Simulation Instructions: 50000000
Number of CPUs: 1
LLC sets: 2048
LLC ways: 16
Off-chip DRAM Size: 4096 MB Channels: 1 Width: 64-bit Data Rate: 3200 MT/s

CPU 0 runs /home/ykhodke/ChampSim/dpc3_traces/641.leela_s-800B.champsimtrace.xz
CPU 0 L1I next line prefetcher
CPU 0 L1D next line prefetcher
Heartbeat CPU 0 instructions: 10000003 cycles: 4646120 heartbeat IPC: 2.15233 cumulative IPC: 2.15233 (Simulation time: 0 hr 0 min 14 sec) 
Heartbeat CPU 0 instructions: 20000003 cycles: 9289264 heartbeat IPC: 2.15371 cumulative IPC: 2.15302 (Simulation time: 0 hr 0 min 28 sec) 
Heartbeat CPU 0 instructions: 30000001 cycles: 13951255 heartbeat IPC: 2.14501 cumulative IPC: 2.15034 (Simulation time: 0 hr 0 min 41 sec) 
Heartbeat CPU 0 instructions: 40000002 cycles: 18599710 heartbeat IPC: 2.15125 cumulative IPC: 2.15057 (Simulation time: 0 hr 0 min 55 sec) 
Heartbeat CPU 0 instructions: 50000001 cycles: 23243247 heartbeat IPC: 2.15353 cumulative IPC: 2.15116 (Simulation time: 0 hr 1 min 8 sec) 

Warmup complete CPU 0 instructions: 50000001 cycles: 23243247 (Simulation time: 0 hr 1 min 8 sec) 

Heartbeat CPU 0 instructions: 60000000 cycles: 34795174 heartbeat IPC: 0.865656 cumulative IPC: 0.865656 (Simulation time: 0 hr 1 min 19 sec) 
Heartbeat CPU 0 instructions: 70000001 cycles: 46320059 heartbeat IPC: 0.867688 cumulative IPC: 0.866671 (Simulation time: 0 hr 1 min 30 sec) 
Heartbeat CPU 0 instructions: 80000001 cycles: 57836020 heartbeat IPC: 0.86836 cumulative IPC: 0.867233 (Simulation time: 0 hr 1 min 41 sec) 
Heartbeat CPU 0 instructions: 90000003 cycles: 69300942 heartbeat IPC: 0.872226 cumulative IPC: 0.868476 (Simulation time: 0 hr 1 min 52 sec) 
Heartbeat CPU 0 instructions: 100000002 cycles: 80773997 heartbeat IPC: 0.871607 cumulative IPC: 0.8691 (Simulation time: 0 hr 2 min 3 sec) 
Finished CPU 0 instructions: 50000001 cycles: 57530750 cumulative IPC: 0.8691 (Simulation time: 0 hr 2 min 3 sec) 

ChampSim completed all CPUs

Region of Interest Statistics

CPU 0 cumulative IPC: 0.8691 instructions: 50000001 cycles: 57530750
L1D TOTAL     ACCESS:   25020953  HIT:   24868651  MISS:     152302
L1D LOAD      ACCESS:    9726408  HIT:    9637105  MISS:      89303
L1D RFO       ACCESS:    5717166  HIT:    5708068  MISS:       9098
L1D PREFETCH  ACCESS:    9577379  HIT:    9523478  MISS:      53901
L1D WRITEBACK ACCESS:          0  HIT:          0  MISS:          0
L1D PREFETCH  REQUESTED:    9730130  ISSUED:    9603662  USEFUL:      17628  USELESS:      36222
L1D AVERAGE MISS LATENCY: 15.7639 cycles
L1I TOTAL     ACCESS:    9168330  HIT:    9165417  MISS:       2913
L1I LOAD      ACCESS:    8977600  HIT:    8976302  MISS:       1298
L1I RFO       ACCESS:          0  HIT:          0  MISS:          0
L1I PREFETCH  ACCESS:     190730  HIT:     189115  MISS:       1615
L1I WRITEBACK ACCESS:          0  HIT:          0  MISS:          0
L1I PREFETCH  REQUESTED:     190981  ISSUED:     190981  USEFUL:       1501  USELESS:        116
L1I AVERAGE MISS LATENCY: 16.6066 cycles
L2C TOTAL     ACCESS:     286711  HIT:     284987  MISS:       1724
L2C LOAD      ACCESS:      90225  HIT:      89480  MISS:        745
L2C RFO       ACCESS:       9004  HIT:       8963  MISS:         41
L2C PREFETCH  ACCESS:     167664  HIT:     166726  MISS:        938
L2C WRITEBACK ACCESS:      19818  HIT:      19818  MISS:          0
L2C PREFETCH  REQUESTED:     175720  ISSUED:     175602  USEFUL:        493  USELESS:        355
L2C AVERAGE MISS LATENCY: 79.6061 cycles
LLC TOTAL     ACCESS:      30081  HIT:      28727  MISS:       1354
LLC LOAD      ACCESS:        717  HIT:        481  MISS:        236
LLC RFO       ACCESS:         41  HIT:          4  MISS:         37
LLC PREFETCH  ACCESS:      29198  HIT:      28117  MISS:       1081
LLC WRITEBACK ACCESS:        125  HIT:        125  MISS:          0
LLC PREFETCH  REQUESTED:          0  ISSUED:          0  USEFUL:        128  USELESS:          0
LLC AVERAGE MISS LATENCY: 155.139 cycles
Major fault: 0 Minor fault: 491
I-Shadow cache 408 bytes
Touched + WorthPF tables 24576 bytes 
MMA filter 174 bytes 
FNL filter 272 bytes 
TOTAL PREFETCHER STORAGE SIZE: 98134 bytes
CPU 0 L1I next line prefetcher final stats
CPU 0 L1D next line prefetcher final stats

DRAM Statistics
 CHANNEL 0
 RQ ROW_BUFFER_HIT:        276  ROW_BUFFER_MISS:       1078
 DBUS_CONGESTED:        387
 WQ ROW_BUFFER_HIT:          0  ROW_BUFFER_MISS:          0  FULL:          0

 AVG_CONGESTED_CYCLE: 4

CPU 0 Branch Prediction Accuracy: 93.0243% MPKI: 11.3959 Average ROB Occupancy at Mispredict: 42.4488

Branch types
NOT_BRANCH: 41831381 83.6628%
BRANCH_DIRECT_JUMP: 271721 0.543442%
BRANCH_INDIRECT: 310 0.00062%
BRANCH_CONDITIONAL: 4950159 9.90032%
BRANCH_DIRECT_CALL: 1473055 2.94611%
BRANCH_INDIRECT_CALL: 0 0%
BRANCH_RETURN: 1473053 2.94611%
BRANCH_OTHER: 0 0%

