Initialize SIGNATURE TABLE
ST_SET: 1
ST_WAY: 256
ST_TAG_BIT: 16
ST_TAG_MASK: ffff

Initialize PATTERN TABLE
PT_SET: 512
PT_WAY: 4
SIG_DELTA_BIT: 7
C_SIG_BIT: 4
C_DELTA_BIT: 4

Initialize PREFETCH FILTER
FILTER_SET: 1024

*** ChampSim Multicore Out-of-Order Simulator ***

Warmup Instructions: 50000000
Simulation Instructions: 50000000
Number of CPUs: 1
LLC sets: 2048
LLC ways: 16
Off-chip DRAM Size: 4096 MB Channels: 1 Width: 64-bit Data Rate: 3200 MT/s

CPU 0 runs /home/ykhodke/ChampSim/dpc3_traces/client_005.champsimtrace.xz
CPU 0 L1I next line prefetcher
CPU 0 L1D next line prefetcher
Heartbeat CPU 0 instructions: 10000001 cycles: 3291489 heartbeat IPC: 3.03814 cumulative IPC: 3.03814 (Simulation time: 0 hr 0 min 14 sec) 
Heartbeat CPU 0 instructions: 20000002 cycles: 6697365 heartbeat IPC: 2.9361 cumulative IPC: 2.98625 (Simulation time: 0 hr 0 min 27 sec) 
Heartbeat CPU 0 instructions: 30000001 cycles: 10390638 heartbeat IPC: 2.70763 cumulative IPC: 2.88721 (Simulation time: 0 hr 0 min 42 sec) 
Heartbeat CPU 0 instructions: 40000000 cycles: 14068385 heartbeat IPC: 2.71906 cumulative IPC: 2.84325 (Simulation time: 0 hr 0 min 57 sec) 
Heartbeat CPU 0 instructions: 50000001 cycles: 17341991 heartbeat IPC: 3.05474 cumulative IPC: 2.88318 (Simulation time: 0 hr 1 min 10 sec) 

Warmup complete CPU 0 instructions: 50000001 cycles: 17341991 (Simulation time: 0 hr 1 min 10 sec) 

Heartbeat CPU 0 instructions: 60000002 cycles: 24968307 heartbeat IPC: 1.31125 cumulative IPC: 1.31125 (Simulation time: 0 hr 1 min 23 sec) 
Heartbeat CPU 0 instructions: 70000003 cycles: 32266140 heartbeat IPC: 1.37027 cumulative IPC: 1.34011 (Simulation time: 0 hr 1 min 37 sec) 
Heartbeat CPU 0 instructions: 80000001 cycles: 39147757 heartbeat IPC: 1.45315 cumulative IPC: 1.37578 (Simulation time: 0 hr 1 min 51 sec) 
Heartbeat CPU 0 instructions: 90000002 cycles: 48650688 heartbeat IPC: 1.05231 cumulative IPC: 1.2776 (Simulation time: 0 hr 2 min 6 sec) 
Heartbeat CPU 0 instructions: 100000002 cycles: 56185037 heartbeat IPC: 1.32725 cumulative IPC: 1.28723 (Simulation time: 0 hr 2 min 19 sec) 
Finished CPU 0 instructions: 50000001 cycles: 38843046 cumulative IPC: 1.28723 (Simulation time: 0 hr 2 min 19 sec) 

ChampSim completed all CPUs

Region of Interest Statistics

CPU 0 cumulative IPC: 1.28723 instructions: 50000001 cycles: 38843046
L1D TOTAL     ACCESS:   19671163  HIT:   19135258  MISS:     535905
L1D LOAD      ACCESS:    6662140  HIT:    6490593  MISS:     171547
L1D RFO       ACCESS:    6798021  HIT:    6613663  MISS:     184358
L1D PREFETCH  ACCESS:    6211002  HIT:    6031002  MISS:     180000
L1D WRITEBACK ACCESS:          0  HIT:          0  MISS:          0
L1D PREFETCH  REQUESTED:    6685421  ISSUED:    6314922  USEFUL:      59707  USELESS:     120179
L1D AVERAGE MISS LATENCY: 92.2568 cycles
L1I TOTAL     ACCESS:   12106227  HIT:   11001240  MISS:    1104987
L1I LOAD      ACCESS:    9312782  HIT:    9115958  MISS:     196824
L1I RFO       ACCESS:          0  HIT:          0  MISS:          0
L1I PREFETCH  ACCESS:    2793445  HIT:    1885282  MISS:     908163
L1I WRITEBACK ACCESS:          0  HIT:          0  MISS:          0
L1I PREFETCH  REQUESTED:    2910507  ISSUED:    2910492  USEFUL:     593018  USELESS:     315071
L1I AVERAGE MISS LATENCY: 20.4968 cycles
L2C TOTAL     ACCESS:    2404762  HIT:    2014296  MISS:     390466
L2C LOAD      ACCESS:     329625  HIT:     241273  MISS:      88352
L2C RFO       ACCESS:     180791  HIT:      32159  MISS:     148632
L2C PREFETCH  ACCESS:    1641303  HIT:    1489154  MISS:     152149
L2C WRITEBACK ACCESS:     253043  HIT:     251710  MISS:       1333
L2C PREFETCH  REQUESTED:    1853301  ISSUED:    1852337  USEFUL:      15925  USELESS:     134416
L2C AVERAGE MISS LATENCY: 127.054 cycles
LLC TOTAL     ACCESS:     992104  HIT:     689382  MISS:     302722
LLC LOAD      ACCESS:      88329  HIT:      46301  MISS:      42028
LLC RFO       ACCESS:     148630  HIT:      19011  MISS:     129619
LLC PREFETCH  ACCESS:     556328  HIT:     426217  MISS:     130111
LLC WRITEBACK ACCESS:     198817  HIT:     197853  MISS:        964
LLC PREFETCH  REQUESTED:          0  ISSUED:          0  USEFUL:      28265  USELESS:      97308
LLC AVERAGE MISS LATENCY: 169.725 cycles
Major fault: 0 Minor fault: 6084
I-Shadow cache 408 bytes
Touched + WorthPF tables 24576 bytes 
MMA filter 174 bytes 
FNL filter 272 bytes 
TOTAL PREFETCHER STORAGE SIZE: 98134 bytes
CPU 0 L1I next line prefetcher final stats
CPU 0 L1D next line prefetcher final stats

DRAM Statistics
 CHANNEL 0
 RQ ROW_BUFFER_HIT:      98403  ROW_BUFFER_MISS:     203338
 DBUS_CONGESTED:     247261
 WQ ROW_BUFFER_HIT:      51390  ROW_BUFFER_MISS:     131908  FULL:          0

 AVG_CONGESTED_CYCLE: 6

CPU 0 Branch Prediction Accuracy: 97.8666% MPKI: 3.9013 Average ROB Occupancy at Mispredict: 86.9688

Branch types
NOT_BRANCH: 40856330 81.7127%
BRANCH_DIRECT_JUMP: 484667 0.969334%
BRANCH_INDIRECT: 85086 0.170172%
BRANCH_CONDITIONAL: 6230887 12.4618%
BRANCH_DIRECT_CALL: 1028917 2.05783%
BRANCH_INDIRECT_CALL: 141825 0.28365%
BRANCH_RETURN: 1171986 2.34397%
BRANCH_OTHER: 0 0%

