Initialize SIGNATURE TABLE
ST_SET: 1
ST_WAY: 256
ST_TAG_BIT: 16
ST_TAG_MASK: ffff

Initialize PATTERN TABLE
PT_SET: 512
PT_WAY: 4
SIG_DELTA_BIT: 7
C_SIG_BIT: 4
C_DELTA_BIT: 4

Initialize PREFETCH FILTER
FILTER_SET: 1024

*** ChampSim Multicore Out-of-Order Simulator ***

Warmup Instructions: 50000000
Simulation Instructions: 50000000
Number of CPUs: 1
LLC sets: 2048
LLC ways: 16
Off-chip DRAM Size: 4096 MB Channels: 1 Width: 64-bit Data Rate: 3200 MT/s

CPU 0 runs /home/ykhodke/ChampSim/dpc3_traces/client_003.champsimtrace.xz
CPU 0 L1I next line prefetcher
CPU 0 L1D next line prefetcher
Heartbeat CPU 0 instructions: 10000000 cycles: 3478232 heartbeat IPC: 2.87502 cumulative IPC: 2.87502 (Simulation time: 0 hr 0 min 14 sec) 
Heartbeat CPU 0 instructions: 20000002 cycles: 6932306 heartbeat IPC: 2.89513 cumulative IPC: 2.88504 (Simulation time: 0 hr 0 min 28 sec) 
Heartbeat CPU 0 instructions: 30000003 cycles: 10493159 heartbeat IPC: 2.80832 cumulative IPC: 2.85901 (Simulation time: 0 hr 0 min 43 sec) 
Heartbeat CPU 0 instructions: 40000001 cycles: 14109557 heartbeat IPC: 2.76518 cumulative IPC: 2.83496 (Simulation time: 0 hr 0 min 57 sec) 
Heartbeat CPU 0 instructions: 50000003 cycles: 17654658 heartbeat IPC: 2.82079 cumulative IPC: 2.83211 (Simulation time: 0 hr 1 min 11 sec) 

Warmup complete CPU 0 instructions: 50000003 cycles: 17654658 (Simulation time: 0 hr 1 min 11 sec) 

Heartbeat CPU 0 instructions: 60000002 cycles: 23958794 heartbeat IPC: 1.58626 cumulative IPC: 1.58626 (Simulation time: 0 hr 1 min 24 sec) 
Heartbeat CPU 0 instructions: 70000001 cycles: 30042209 heartbeat IPC: 1.64381 cumulative IPC: 1.61452 (Simulation time: 0 hr 1 min 38 sec) 
Heartbeat CPU 0 instructions: 80000001 cycles: 36902120 heartbeat IPC: 1.45774 cumulative IPC: 1.55865 (Simulation time: 0 hr 1 min 51 sec) 
Heartbeat CPU 0 instructions: 90000000 cycles: 45898931 heartbeat IPC: 1.1115 cumulative IPC: 1.41622 (Simulation time: 0 hr 2 min 2 sec) 
Heartbeat CPU 0 instructions: 100000003 cycles: 56798163 heartbeat IPC: 0.917496 cumulative IPC: 1.27735 (Simulation time: 0 hr 2 min 14 sec) 
Finished CPU 0 instructions: 50000000 cycles: 39143505 cumulative IPC: 1.27735 (Simulation time: 0 hr 2 min 14 sec) 

ChampSim completed all CPUs

Region of Interest Statistics

CPU 0 cumulative IPC: 1.27735 instructions: 50000000 cycles: 39143505
L1D TOTAL     ACCESS:   17657642  HIT:   17161631  MISS:     496011
L1D LOAD      ACCESS:    6048506  HIT:    5921910  MISS:     126596
L1D RFO       ACCESS:    5949185  HIT:    5714855  MISS:     234330
L1D PREFETCH  ACCESS:    5659951  HIT:    5524866  MISS:     135085
L1D WRITEBACK ACCESS:          0  HIT:          0  MISS:          0
L1D PREFETCH  REQUESTED:    6089973  ISSUED:    5948779  USEFUL:      67108  USELESS:      68026
L1D AVERAGE MISS LATENCY: 123.02 cycles
L1I TOTAL     ACCESS:   11426391  HIT:   10656953  MISS:     769438
L1I LOAD      ACCESS:    9446967  HIT:    9326179  MISS:     120788
L1I RFO       ACCESS:          0  HIT:          0  MISS:          0
L1I PREFETCH  ACCESS:    1979424  HIT:    1330774  MISS:     648650
L1I WRITEBACK ACCESS:          0  HIT:          0  MISS:          0
L1I PREFETCH  REQUESTED:    2054241  ISSUED:    2054237  USEFUL:     420354  USELESS:     228319
L1I AVERAGE MISS LATENCY: 20.7737 cycles
L2C TOTAL     ACCESS:    1869270  HIT:    1472097  MISS:     397173
L2C LOAD      ACCESS:     196520  HIT:     151155  MISS:      45365
L2C RFO       ACCESS:     232296  HIT:      25946  MISS:     206350
L2C PREFETCH  ACCESS:    1171145  HIT:    1026771  MISS:     144374
L2C WRITEBACK ACCESS:     269309  HIT:     268225  MISS:       1084
L2C PREFETCH  REQUESTED:    1364770  ISSUED:    1364139  USEFUL:      12552  USELESS:     132361
L2C AVERAGE MISS LATENCY: 168.29 cycles
LLC TOTAL     ACCESS:    1006962  HIT:     720570  MISS:     286392
LLC LOAD      ACCESS:      45265  HIT:      31712  MISS:      13553
LLC RFO       ACCESS:     206343  HIT:      34819  MISS:     171524
LLC PREFETCH  ACCESS:     531557  HIT:     430658  MISS:     100899
LLC WRITEBACK ACCESS:     223797  HIT:     223381  MISS:        416
LLC PREFETCH  REQUESTED:          0  ISSUED:          0  USEFUL:      10825  USELESS:      90759
LLC AVERAGE MISS LATENCY: 231.344 cycles
Major fault: 0 Minor fault: 5042
I-Shadow cache 408 bytes
Touched + WorthPF tables 24576 bytes 
MMA filter 174 bytes 
FNL filter 272 bytes 
TOTAL PREFETCHER STORAGE SIZE: 98134 bytes
CPU 0 L1I next line prefetcher final stats
CPU 0 L1D next line prefetcher final stats

DRAM Statistics
 CHANNEL 0
 RQ ROW_BUFFER_HIT:     100334  ROW_BUFFER_MISS:     185634
 DBUS_CONGESTED:     260982
 WQ ROW_BUFFER_HIT:      58958  ROW_BUFFER_MISS:     119873  FULL:          0

 AVG_CONGESTED_CYCLE: 6

CPU 0 Branch Prediction Accuracy: 98.6631% MPKI: 2.66884 Average ROB Occupancy at Mispredict: 76.2691

Branch types
NOT_BRANCH: 40018780 80.0376%
BRANCH_DIRECT_JUMP: 370861 0.741722%
BRANCH_INDIRECT: 83253 0.166506%
BRANCH_CONDITIONAL: 7877436 15.7549%
BRANCH_DIRECT_CALL: 722316 1.44463%
BRANCH_INDIRECT_CALL: 101901 0.203802%
BRANCH_RETURN: 825355 1.65071%
BRANCH_OTHER: 0 0%

