Initialize SIGNATURE TABLE
ST_SET: 1
ST_WAY: 256
ST_TAG_BIT: 16
ST_TAG_MASK: ffff

Initialize PATTERN TABLE
PT_SET: 512
PT_WAY: 4
SIG_DELTA_BIT: 7
C_SIG_BIT: 4
C_DELTA_BIT: 4

Initialize PREFETCH FILTER
FILTER_SET: 1024

*** ChampSim Multicore Out-of-Order Simulator ***

Warmup Instructions: 50000000
Simulation Instructions: 50000000
Number of CPUs: 1
LLC sets: 2048
LLC ways: 16
Off-chip DRAM Size: 4096 MB Channels: 1 Width: 64-bit Data Rate: 3200 MT/s

CPU 0 runs /home/ykhodke/ChampSim/dpc3_traces/client_003.champsimtrace.xz
CPU 0 Temporal Ancestry L1I prefetcher
CPU 0 L1D next line prefetcher
Heartbeat CPU 0 instructions: 10000000 cycles: 3479928 heartbeat IPC: 2.87362 cumulative IPC: 2.87362 (Simulation time: 0 hr 1 min 3 sec) 
Heartbeat CPU 0 instructions: 20000002 cycles: 6937284 heartbeat IPC: 2.89238 cumulative IPC: 2.88297 (Simulation time: 0 hr 2 min 59 sec) 
Heartbeat CPU 0 instructions: 30000003 cycles: 10499432 heartbeat IPC: 2.8073 cumulative IPC: 2.8573 (Simulation time: 0 hr 5 min 1 sec) 
Heartbeat CPU 0 instructions: 40000001 cycles: 14117159 heartbeat IPC: 2.76417 cumulative IPC: 2.83343 (Simulation time: 0 hr 7 min 7 sec) 
Heartbeat CPU 0 instructions: 50000003 cycles: 17663819 heartbeat IPC: 2.81955 cumulative IPC: 2.83065 (Simulation time: 0 hr 9 min 8 sec) 

Warmup complete CPU 0 instructions: 50000003 cycles: 17663819 (Simulation time: 0 hr 9 min 8 sec) 

Heartbeat CPU 0 instructions: 60000000 cycles: 24203066 heartbeat IPC: 1.52923 cumulative IPC: 1.52923 (Simulation time: 0 hr 10 min 46 sec) 
Heartbeat CPU 0 instructions: 70000001 cycles: 30550818 heartbeat IPC: 1.57536 cumulative IPC: 1.55195 (Simulation time: 0 hr 12 min 24 sec) 
Heartbeat CPU 0 instructions: 80000000 cycles: 37843632 heartbeat IPC: 1.37121 cumulative IPC: 1.48663 (Simulation time: 0 hr 14 min 3 sec) 
Heartbeat CPU 0 instructions: 90000000 cycles: 47230972 heartbeat IPC: 1.06526 cumulative IPC: 1.35285 (Simulation time: 0 hr 15 min 31 sec) 
Heartbeat CPU 0 instructions: 100000003 cycles: 58348151 heartbeat IPC: 0.899509 cumulative IPC: 1.22897 (Simulation time: 0 hr 17 min 14 sec) 
Finished CPU 0 instructions: 50000000 cycles: 40684332 cumulative IPC: 1.22897 (Simulation time: 0 hr 17 min 14 sec) 

ChampSim completed all CPUs

Region of Interest Statistics

CPU 0 cumulative IPC: 1.22897 instructions: 50000000 cycles: 40684332
L1D TOTAL     ACCESS:   17836399  HIT:   17340206  MISS:     496193
L1D LOAD      ACCESS:    6141612  HIT:    6016217  MISS:     125395
L1D RFO       ACCESS:    5944615  HIT:    5709988  MISS:     234627
L1D PREFETCH  ACCESS:    5750172  HIT:    5614001  MISS:     136171
L1D WRITEBACK ACCESS:          0  HIT:          0  MISS:          0
L1D PREFETCH  REQUESTED:    6184437  ISSUED:    6041427  USEFUL:      68203  USELESS:      68015
L1D AVERAGE MISS LATENCY: 129.706 cycles
L1I TOTAL     ACCESS:   15195932  HIT:   10181903  MISS:    5014029
L1I LOAD      ACCESS:    9621423  HIT:    9390754  MISS:     230669
L1I RFO       ACCESS:          0  HIT:          0  MISS:          0
L1I PREFETCH  ACCESS:    5574509  HIT:     791149  MISS:    4783360
L1I WRITEBACK ACCESS:          0  HIT:          0  MISS:          0
L1I PREFETCH  REQUESTED:   10756611  ISSUED:   10573218  USEFUL:    1056646  USELESS:    3726674
L1I AVERAGE MISS LATENCY: 16.2559 cycles
L2C TOTAL     ACCESS:    6600368  HIT:    6116541  MISS:     483827
L2C LOAD      ACCESS:     249389  HIT:     197565  MISS:      51824
L2C RFO       ACCESS:     232254  HIT:      20661  MISS:     211593
L2C PREFETCH  ACCESS:    5849422  HIT:    5632648  MISS:     216774
L2C WRITEBACK ACCESS:     269303  HIT:     265667  MISS:       3636
L2C PREFETCH  REQUESTED:    1549910  ISSUED:    1549420  USEFUL:      16652  USELESS:     199170
L2C AVERAGE MISS LATENCY: 154.71 cycles
LLC TOTAL     ACCESS:    1141656  HIT:     827691  MISS:     313965
LLC LOAD      ACCESS:      51788  HIT:      37832  MISS:      13956
LLC RFO       ACCESS:     211589  HIT:      34117  MISS:     177472
LLC PREFETCH  ACCESS:     644731  HIT:     522530  MISS:     122201
LLC WRITEBACK ACCESS:     233548  HIT:     233212  MISS:        336
LLC PREFETCH  REQUESTED:          0  ISSUED:          0  USEFUL:       7831  USELESS:     114972
LLC AVERAGE MISS LATENCY: 243.473 cycles
Major fault: 0 Minor fault: 5045
CPU 0 L1D next line prefetcher final stats

DRAM Statistics
 CHANNEL 0
 RQ ROW_BUFFER_HIT:     102957  ROW_BUFFER_MISS:     210660
 DBUS_CONGESTED:     254762
 WQ ROW_BUFFER_HIT:      54635  ROW_BUFFER_MISS:     129134  FULL:          0

 AVG_CONGESTED_CYCLE: 6

CPU 0 Branch Prediction Accuracy: 98.6631% MPKI: 2.66884 Average ROB Occupancy at Mispredict: 69.5859

Branch types
NOT_BRANCH: 40018663 80.0373%
BRANCH_DIRECT_JUMP: 370860 0.74172%
BRANCH_INDIRECT: 83252 0.166504%
BRANCH_CONDITIONAL: 7877421 15.7548%
BRANCH_DIRECT_CALL: 722308 1.44462%
BRANCH_INDIRECT_CALL: 101901 0.203802%
BRANCH_RETURN: 825353 1.65071%
BRANCH_OTHER: 0 0%

