Initialize SIGNATURE TABLE
ST_SET: 1
ST_WAY: 256
ST_TAG_BIT: 16
ST_TAG_MASK: ffff

Initialize PATTERN TABLE
PT_SET: 512
PT_WAY: 4
SIG_DELTA_BIT: 7
C_SIG_BIT: 4
C_DELTA_BIT: 4

Initialize PREFETCH FILTER
FILTER_SET: 1024

*** ChampSim Multicore Out-of-Order Simulator ***

Warmup Instructions: 50000000
Simulation Instructions: 50000000
Number of CPUs: 1
LLC sets: 2048
LLC ways: 16
Off-chip DRAM Size: 4096 MB Channels: 1 Width: 64-bit Data Rate: 3200 MT/s

CPU 0 runs /home/ykhodke/ChampSim/dpc3_traces/server_013.champsimtrace.xz
CPU 0 Temporal Ancestry L1I prefetcher
CPU 0 L1D next line prefetcher
Heartbeat CPU 0 instructions: 10000000 cycles: 3257987 heartbeat IPC: 3.06938 cumulative IPC: 3.06938 (Simulation time: 0 hr 1 min 40 sec) 
Heartbeat CPU 0 instructions: 20000001 cycles: 6507742 heartbeat IPC: 3.07716 cumulative IPC: 3.07326 (Simulation time: 0 hr 3 min 23 sec) 
Heartbeat CPU 0 instructions: 30000002 cycles: 9760170 heartbeat IPC: 3.07463 cumulative IPC: 3.07372 (Simulation time: 0 hr 5 min 6 sec) 
Heartbeat CPU 0 instructions: 40000002 cycles: 13010563 heartbeat IPC: 3.07655 cumulative IPC: 3.07443 (Simulation time: 0 hr 6 min 49 sec) 
Heartbeat CPU 0 instructions: 50000000 cycles: 16268782 heartbeat IPC: 3.06916 cumulative IPC: 3.07337 (Simulation time: 0 hr 8 min 32 sec) 

Warmup complete CPU 0 instructions: 50000004 cycles: 16268783 (Simulation time: 0 hr 8 min 32 sec) 

Heartbeat CPU 0 instructions: 60000002 cycles: 24783714 heartbeat IPC: 1.17441 cumulative IPC: 1.17441 (Simulation time: 0 hr 10 min 4 sec) 
Heartbeat CPU 0 instructions: 70000002 cycles: 33386884 heartbeat IPC: 1.16236 cumulative IPC: 1.16835 (Simulation time: 0 hr 14 min 12 sec) 
Heartbeat CPU 0 instructions: 80000003 cycles: 41427571 heartbeat IPC: 1.24367 cumulative IPC: 1.19243 (Simulation time: 0 hr 15 min 47 sec) 
Heartbeat CPU 0 instructions: 90000003 cycles: 49685085 heartbeat IPC: 1.21102 cumulative IPC: 1.19702 (Simulation time: 0 hr 17 min 20 sec) 
Heartbeat CPU 0 instructions: 100000000 cycles: 57906775 heartbeat IPC: 1.21629 cumulative IPC: 1.20083 (Simulation time: 0 hr 18 min 52 sec) 
Finished CPU 0 instructions: 50000000 cycles: 41637993 cumulative IPC: 1.20083 (Simulation time: 0 hr 18 min 52 sec) 

ChampSim completed all CPUs

Region of Interest Statistics

CPU 0 cumulative IPC: 1.20083 instructions: 50000000 cycles: 41637993
L1D TOTAL     ACCESS:   17747964  HIT:   16681174  MISS:    1066790
L1D LOAD      ACCESS:    6525080  HIT:    6025008  MISS:     500072
L1D RFO       ACCESS:    4942636  HIT:    4862189  MISS:      80447
L1D PREFETCH  ACCESS:    6280248  HIT:    5793977  MISS:     486271
L1D WRITEBACK ACCESS:          0  HIT:          0  MISS:          0
L1D PREFETCH  REQUESTED:    6563981  ISSUED:    6466046  USEFUL:     134456  USELESS:     351823
L1D AVERAGE MISS LATENCY: 46.4163 cycles
L1I TOTAL     ACCESS:   17963466  HIT:    9461776  MISS:    8501690
L1I LOAD      ACCESS:    8911454  HIT:    8411721  MISS:     499733
L1I RFO       ACCESS:          0  HIT:          0  MISS:          0
L1I PREFETCH  ACCESS:    9052012  HIT:    1050055  MISS:    8001957
L1I WRITEBACK ACCESS:          0  HIT:          0  MISS:          0
L1I PREFETCH  REQUESTED:   19498869  ISSUED:   18792696  USEFUL:    1556722  USELESS:    6445264
L1I AVERAGE MISS LATENCY: 19.7457 cycles
L2C TOTAL     ACCESS:   11674357  HIT:    9715173  MISS:    1959184
L2C LOAD      ACCESS:     788547  HIT:     355820  MISS:     432727
L2C RFO       ACCESS:      78918  HIT:      21910  MISS:      57008
L2C PREFETCH  ACCESS:   10531099  HIT:    9082697  MISS:    1448402
L2C WRITEBACK ACCESS:     275793  HIT:     254746  MISS:      21047
L2C PREFETCH  REQUESTED:    3738265  ISSUED:    3736575  USEFUL:      74393  USELESS:    1372553
L2C AVERAGE MISS LATENCY: 39.2831 cycles
LLC TOTAL     ACCESS:    3338401  HIT:    3174379  MISS:     164022
LLC LOAD      ACCESS:     432642  HIT:     407206  MISS:      25436
LLC RFO       ACCESS:      57001  HIT:      47059  MISS:       9942
LLC PREFETCH  ACCESS:    2639444  HIT:    2510851  MISS:     128593
LLC WRITEBACK ACCESS:     209314  HIT:     209263  MISS:         51
LLC PREFETCH  REQUESTED:          0  ISSUED:          0  USEFUL:      11851  USELESS:     114886
LLC AVERAGE MISS LATENCY: 178.083 cycles
Major fault: 0 Minor fault: 6207
CPU 0 L1D next line prefetcher final stats

DRAM Statistics
 CHANNEL 0
 RQ ROW_BUFFER_HIT:      23863  ROW_BUFFER_MISS:     140098
 DBUS_CONGESTED:      57116
 WQ ROW_BUFFER_HIT:      11616  ROW_BUFFER_MISS:      51168  FULL:          0

 AVG_CONGESTED_CYCLE: 5

CPU 0 Branch Prediction Accuracy: 99.4114% MPKI: 1.0933 Average ROB Occupancy at Mispredict: 100.17

Branch types
NOT_BRANCH: 40713302 81.4266%
BRANCH_DIRECT_JUMP: 463701 0.927402%
BRANCH_INDIRECT: 146544 0.293088%
BRANCH_CONDITIONAL: 6981961 13.9639%
BRANCH_DIRECT_CALL: 665005 1.33001%
BRANCH_INDIRECT_CALL: 165152 0.330304%
BRANCH_RETURN: 864314 1.72863%
BRANCH_OTHER: 0 0%

