Initialize SIGNATURE TABLE
ST_SET: 1
ST_WAY: 256
ST_TAG_BIT: 16
ST_TAG_MASK: ffff

Initialize PATTERN TABLE
PT_SET: 512
PT_WAY: 4
SIG_DELTA_BIT: 7
C_SIG_BIT: 4
C_DELTA_BIT: 4

Initialize PREFETCH FILTER
FILTER_SET: 1024

*** ChampSim Multicore Out-of-Order Simulator ***

Warmup Instructions: 50000000
Simulation Instructions: 50000000
Number of CPUs: 1
LLC sets: 2048
LLC ways: 16
Off-chip DRAM Size: 4096 MB Channels: 1 Width: 64-bit Data Rate: 3200 MT/s

CPU 0 runs /home/ykhodke/ChampSim/dpc3_traces/server_035.champsimtrace.xz
CPU 0 Temporal Ancestry L1I prefetcher
CPU 0 L1D next line prefetcher
Heartbeat CPU 0 instructions: 10000001 cycles: 3343467 heartbeat IPC: 2.99091 cumulative IPC: 2.99091 (Simulation time: 0 hr 0 min 59 sec) 
Heartbeat CPU 0 instructions: 20000000 cycles: 6685275 heartbeat IPC: 2.99239 cumulative IPC: 2.99165 (Simulation time: 0 hr 2 min 3 sec) 
Heartbeat CPU 0 instructions: 30000000 cycles: 10024244 heartbeat IPC: 2.99494 cumulative IPC: 2.99274 (Simulation time: 0 hr 3 min 7 sec) 
Heartbeat CPU 0 instructions: 40000000 cycles: 13368036 heartbeat IPC: 2.99062 cumulative IPC: 2.99221 (Simulation time: 0 hr 4 min 10 sec) 
Heartbeat CPU 0 instructions: 50000003 cycles: 16709291 heartbeat IPC: 2.99289 cumulative IPC: 2.99235 (Simulation time: 0 hr 5 min 13 sec) 

Warmup complete CPU 0 instructions: 50000003 cycles: 16709291 (Simulation time: 0 hr 5 min 13 sec) 

Heartbeat CPU 0 instructions: 60000001 cycles: 25503466 heartbeat IPC: 1.13712 cumulative IPC: 1.13712 (Simulation time: 0 hr 6 min 11 sec) 
Heartbeat CPU 0 instructions: 70000003 cycles: 33882120 heartbeat IPC: 1.19351 cumulative IPC: 1.16463 (Simulation time: 0 hr 7 min 11 sec) 
Heartbeat CPU 0 instructions: 80000001 cycles: 42416648 heartbeat IPC: 1.17171 cumulative IPC: 1.16698 (Simulation time: 0 hr 8 min 11 sec) 
Heartbeat CPU 0 instructions: 90000002 cycles: 50300942 heartbeat IPC: 1.26834 cumulative IPC: 1.19077 (Simulation time: 0 hr 9 min 11 sec) 
Heartbeat CPU 0 instructions: 100000002 cycles: 58836400 heartbeat IPC: 1.17158 cumulative IPC: 1.18688 (Simulation time: 0 hr 10 min 12 sec) 
Finished CPU 0 instructions: 50000003 cycles: 42127110 cumulative IPC: 1.18688 (Simulation time: 0 hr 10 min 12 sec) 

ChampSim completed all CPUs

Region of Interest Statistics

CPU 0 cumulative IPC: 1.18688 instructions: 50000003 cycles: 42127110
L1D TOTAL     ACCESS:   18252728  HIT:   16748605  MISS:    1504123
L1D LOAD      ACCESS:    6159154  HIT:    5457572  MISS:     701582
L1D RFO       ACCESS:    6154061  HIT:    6001435  MISS:     152626
L1D PREFETCH  ACCESS:    5939513  HIT:    5289598  MISS:     649915
L1D WRITEBACK ACCESS:          0  HIT:          0  MISS:          0
L1D PREFETCH  REQUESTED:    6205781  ISSUED:    6107256  USEFUL:     138153  USELESS:     511767
L1D AVERAGE MISS LATENCY: 47.7932 cycles
L1I TOTAL     ACCESS:   23316843  HIT:   12109343  MISS:   11207500
L1I LOAD      ACCESS:    9943183  HIT:    9836413  MISS:     106770
L1I RFO       ACCESS:          0  HIT:          0  MISS:          0
L1I PREFETCH  ACCESS:   13373660  HIT:    2272930  MISS:   11100730
L1I WRITEBACK ACCESS:          0  HIT:          0  MISS:          0
L1I PREFETCH  REQUESTED:   29236301  ISSUED:   28154107  USEFUL:    3708029  USELESS:    7392707
L1I AVERAGE MISS LATENCY: 15.2072 cycles
L2C TOTAL     ACCESS:   15259171  HIT:   14891523  MISS:     367648
L2C LOAD      ACCESS:     730815  HIT:     597732  MISS:     133083
L2C RFO       ACCESS:     150680  HIT:     128521  MISS:      22159
L2C PREFETCH  ACCESS:   14012644  HIT:   13804113  MISS:     208531
L2C WRITEBACK ACCESS:     365032  HIT:     361157  MISS:       3875
L2C PREFETCH  REQUESTED:    3275303  ISSUED:    3274523  USEFUL:      15603  USELESS:     191832
L2C AVERAGE MISS LATENCY: 153.003 cycles
LLC TOTAL     ACCESS:    1026336  HIT:     757444  MISS:     268892
LLC LOAD      ACCESS:     132786  HIT:      35979  MISS:      96807
LLC RFO       ACCESS:      22158  HIT:       9020  MISS:      13138
LLC PREFETCH  ACCESS:     766762  HIT:     608699  MISS:     158063
LLC WRITEBACK ACCESS:     104630  HIT:     103746  MISS:        884
LLC PREFETCH  REQUESTED:          0  ISSUED:          0  USEFUL:      15347  USELESS:     141664
LLC AVERAGE MISS LATENCY: 217.836 cycles
Major fault: 0 Minor fault: 5548
CPU 0 L1D next line prefetcher final stats

DRAM Statistics
 CHANNEL 0
 RQ ROW_BUFFER_HIT:      63262  ROW_BUFFER_MISS:     204741
 DBUS_CONGESTED:     146862
 WQ ROW_BUFFER_HIT:      20146  ROW_BUFFER_MISS:      70798  FULL:          0

 AVG_CONGESTED_CYCLE: 5

CPU 0 Branch Prediction Accuracy: 99.9115% MPKI: 0.17232 Average ROB Occupancy at Mispredict: 212.79

Branch types
NOT_BRANCH: 40267345 80.5347%
BRANCH_DIRECT_JUMP: 771900 1.5438%
BRANCH_INDIRECT: 108179 0.216358%
BRANCH_CONDITIONAL: 6307185 12.6144%
BRANCH_DIRECT_CALL: 1060896 2.12179%
BRANCH_INDIRECT_CALL: 211720 0.42344%
BRANCH_RETURN: 1272637 2.54527%
BRANCH_OTHER: 0 0%

