Initialize SIGNATURE TABLE
ST_SET: 1
ST_WAY: 256
ST_TAG_BIT: 16
ST_TAG_MASK: ffff

Initialize PATTERN TABLE
PT_SET: 512
PT_WAY: 4
SIG_DELTA_BIT: 7
C_SIG_BIT: 4
C_DELTA_BIT: 4

Initialize PREFETCH FILTER
FILTER_SET: 1024

*** ChampSim Multicore Out-of-Order Simulator ***

Warmup Instructions: 50000000
Simulation Instructions: 50000000
Number of CPUs: 1
LLC sets: 2048
LLC ways: 16
Off-chip DRAM Size: 4096 MB Channels: 1 Width: 64-bit Data Rate: 3200 MT/s

CPU 0 runs /home/ykhodke/ChampSim/dpc3_traces/server_015.champsimtrace.xz
CPU 0 L1I next line prefetcher
CPU 0 L1D next line prefetcher
Heartbeat CPU 0 instructions: 10000002 cycles: 3519411 heartbeat IPC: 2.84139 cumulative IPC: 2.84139 (Simulation time: 0 hr 0 min 15 sec) 
Heartbeat CPU 0 instructions: 20000001 cycles: 7106927 heartbeat IPC: 2.78744 cumulative IPC: 2.81416 (Simulation time: 0 hr 0 min 29 sec) 
Heartbeat CPU 0 instructions: 30000001 cycles: 10645876 heartbeat IPC: 2.8257 cumulative IPC: 2.81799 (Simulation time: 0 hr 0 min 43 sec) 
Heartbeat CPU 0 instructions: 40000002 cycles: 14193916 heartbeat IPC: 2.81846 cumulative IPC: 2.81811 (Simulation time: 0 hr 0 min 58 sec) 
Heartbeat CPU 0 instructions: 50000002 cycles: 17742175 heartbeat IPC: 2.81828 cumulative IPC: 2.81814 (Simulation time: 0 hr 1 min 12 sec) 

Warmup complete CPU 0 instructions: 50000002 cycles: 17742175 (Simulation time: 0 hr 1 min 12 sec) 

Heartbeat CPU 0 instructions: 60000002 cycles: 24040834 heartbeat IPC: 1.58764 cumulative IPC: 1.58764 (Simulation time: 0 hr 1 min 28 sec) 
Heartbeat CPU 0 instructions: 70000003 cycles: 30351035 heartbeat IPC: 1.58474 cumulative IPC: 1.58619 (Simulation time: 0 hr 1 min 43 sec) 
Heartbeat CPU 0 instructions: 80000000 cycles: 36661072 heartbeat IPC: 1.58478 cumulative IPC: 1.58572 (Simulation time: 0 hr 1 min 58 sec) 
Heartbeat CPU 0 instructions: 90000000 cycles: 42975428 heartbeat IPC: 1.58369 cumulative IPC: 1.58521 (Simulation time: 0 hr 2 min 14 sec) 
Heartbeat CPU 0 instructions: 100000002 cycles: 49286056 heartbeat IPC: 1.58463 cumulative IPC: 1.58509 (Simulation time: 0 hr 2 min 29 sec) 
Finished CPU 0 instructions: 50000000 cycles: 31543881 cumulative IPC: 1.58509 (Simulation time: 0 hr 2 min 29 sec) 

ChampSim completed all CPUs

Region of Interest Statistics

CPU 0 cumulative IPC: 1.58509 instructions: 50000000 cycles: 31543881
L1D TOTAL     ACCESS:   21844142  HIT:   21827375  MISS:      16767
L1D LOAD      ACCESS:    6699542  HIT:    6699013  MISS:        529
L1D RFO       ACCESS:    8561456  HIT:    8561360  MISS:         96
L1D PREFETCH  ACCESS:    6583144  HIT:    6567002  MISS:      16142
L1D WRITEBACK ACCESS:          0  HIT:          0  MISS:          0
L1D PREFETCH  REQUESTED:    6699604  ISSUED:    6587518  USEFUL:         84  USELESS:      16055
L1D AVERAGE MISS LATENCY: 16.3357 cycles
L1I TOTAL     ACCESS:   15620802  HIT:   13129097  MISS:    2491705
L1I LOAD      ACCESS:    9725881  HIT:    9663845  MISS:      62036
L1I RFO       ACCESS:          0  HIT:          0  MISS:          0
L1I PREFETCH  ACCESS:    5894921  HIT:    3465252  MISS:    2429669
L1I WRITEBACK ACCESS:          0  HIT:          0  MISS:          0
L1I PREFETCH  REQUESTED:    6097723  ISSUED:    6097723  USEFUL:    2058822  USELESS:     370840
L1I AVERAGE MISS LATENCY: 14.2247 cycles
L2C TOTAL     ACCESS:    3224765  HIT:    3224463  MISS:        302
L2C LOAD      ACCESS:      34386  HIT:      34318  MISS:         68
L2C RFO       ACCESS:         95  HIT:         93  MISS:          2
L2C PREFETCH  ACCESS:    3189935  HIT:    3189703  MISS:        232
L2C WRITEBACK ACCESS:        349  HIT:        349  MISS:          0
L2C PREFETCH  REQUESTED:    2258868  ISSUED:    2258852  USEFUL:        121  USELESS:        127
L2C AVERAGE MISS LATENCY: 139.576 cycles
LLC TOTAL     ACCESS:     469264  HIT:     468411  MISS:        853
LLC LOAD      ACCESS:         68  HIT:         52  MISS:         16
LLC RFO       ACCESS:          2  HIT:          0  MISS:          2
LLC PREFETCH  ACCESS:     469111  HIT:     468278  MISS:        833
LLC WRITEBACK ACCESS:         83  HIT:         81  MISS:          2
LLC PREFETCH  REQUESTED:          0  ISSUED:          0  USEFUL:          8  USELESS:        180
LLC AVERAGE MISS LATENCY: 341.615 cycles
Major fault: 0 Minor fault: 1888
I-Shadow cache 408 bytes
Touched + WorthPF tables 24576 bytes 
MMA filter 174 bytes 
FNL filter 272 bytes 
TOTAL PREFETCHER STORAGE SIZE: 98134 bytes
CPU 0 L1I next line prefetcher final stats
CPU 0 L1D next line prefetcher final stats

DRAM Statistics
 CHANNEL 0
 RQ ROW_BUFFER_HIT:        154  ROW_BUFFER_MISS:        697
 DBUS_CONGESTED:        525
 WQ ROW_BUFFER_HIT:         73  ROW_BUFFER_MISS:        498  FULL:          0

 AVG_CONGESTED_CYCLE: 6

CPU 0 Branch Prediction Accuracy: 99.9085% MPKI: 0.15428 Average ROB Occupancy at Mispredict: 287.489

Branch types
NOT_BRANCH: 41573138 83.1463%
BRANCH_DIRECT_JUMP: 436254 0.872508%
BRANCH_INDIRECT: 0 0%
BRANCH_CONDITIONAL: 5395897 10.7918%
BRANCH_DIRECT_CALL: 1173391 2.34678%
BRANCH_INDIRECT_CALL: 123911 0.247822%
BRANCH_RETURN: 1297311 2.59462%
BRANCH_OTHER: 0 0%

