Initialize SIGNATURE TABLE
ST_SET: 1
ST_WAY: 256
ST_TAG_BIT: 16
ST_TAG_MASK: ffff

Initialize PATTERN TABLE
PT_SET: 512
PT_WAY: 4
SIG_DELTA_BIT: 7
C_SIG_BIT: 4
C_DELTA_BIT: 4

Initialize PREFETCH FILTER
FILTER_SET: 1024

*** ChampSim Multicore Out-of-Order Simulator ***

Warmup Instructions: 50000000
Simulation Instructions: 50000000
Number of CPUs: 1
LLC sets: 2048
LLC ways: 16
Off-chip DRAM Size: 4096 MB Channels: 1 Width: 64-bit Data Rate: 3200 MT/s

CPU 0 runs /home/ykhodke/ChampSim/dpc3_traces/server_014.champsimtrace.xz
CPU 0 Temporal Ancestry L1I prefetcher
CPU 0 L1D next line prefetcher
Heartbeat CPU 0 instructions: 10000003 cycles: 3519634 heartbeat IPC: 2.84121 cumulative IPC: 2.84121 (Simulation time: 0 hr 0 min 40 sec) 
Heartbeat CPU 0 instructions: 20000000 cycles: 7108670 heartbeat IPC: 2.78626 cumulative IPC: 2.81347 (Simulation time: 0 hr 2 min 15 sec) 
Heartbeat CPU 0 instructions: 30000001 cycles: 10650300 heartbeat IPC: 2.82356 cumulative IPC: 2.81682 (Simulation time: 0 hr 3 min 56 sec) 
Heartbeat CPU 0 instructions: 40000003 cycles: 14198522 heartbeat IPC: 2.81831 cumulative IPC: 2.81719 (Simulation time: 0 hr 5 min 38 sec) 
Heartbeat CPU 0 instructions: 50000000 cycles: 17747196 heartbeat IPC: 2.81795 cumulative IPC: 2.81735 (Simulation time: 0 hr 7 min 21 sec) 

Warmup complete CPU 0 instructions: 50000001 cycles: 17747197 (Simulation time: 0 hr 7 min 21 sec) 

Heartbeat CPU 0 instructions: 60000000 cycles: 24043840 heartbeat IPC: 1.58815 cumulative IPC: 1.58815 (Simulation time: 0 hr 8 min 46 sec) 
Heartbeat CPU 0 instructions: 70000003 cycles: 30338152 heartbeat IPC: 1.58874 cumulative IPC: 1.58844 (Simulation time: 0 hr 10 min 13 sec) 
*** Reached end of trace for Core: 0 Repeating trace: /home/ykhodke/ChampSim/dpc3_traces/server_014.champsimtrace.xz
Heartbeat CPU 0 instructions: 80000001 cycles: 36942267 heartbeat IPC: 1.51421 cumulative IPC: 1.5629 (Simulation time: 0 hr 11 min 40 sec) 
Heartbeat CPU 0 instructions: 90000003 cycles: 44519647 heartbeat IPC: 1.31972 cumulative IPC: 1.49407 (Simulation time: 0 hr 13 min 4 sec) 
Heartbeat CPU 0 instructions: 100000001 cycles: 51027817 heartbeat IPC: 1.53653 cumulative IPC: 1.50238 (Simulation time: 0 hr 14 min 27 sec) 
Finished CPU 0 instructions: 50000000 cycles: 33280620 cumulative IPC: 1.50238 (Simulation time: 0 hr 14 min 27 sec) 

ChampSim completed all CPUs

Region of Interest Statistics

CPU 0 cumulative IPC: 1.50238 instructions: 50000000 cycles: 33280620
L1D TOTAL     ACCESS:   21629437  HIT:   21558578  MISS:      70859
L1D LOAD      ACCESS:    6673982  HIT:    6647028  MISS:      26954
L1D RFO       ACCESS:    8413068  HIT:    8380989  MISS:      32079
L1D PREFETCH  ACCESS:    6542387  HIT:    6530561  MISS:      11826
L1D WRITEBACK ACCESS:          0  HIT:          0  MISS:          0
L1D PREFETCH  REQUESTED:    6678570  ISSUED:    6570362  USEFUL:       3271  USELESS:       8556
L1D AVERAGE MISS LATENCY: 229.854 cycles
L1I TOTAL     ACCESS:   17778211  HIT:   11278415  MISS:    6499796
L1I LOAD      ACCESS:    9854382  HIT:    9811984  MISS:      42398
L1I RFO       ACCESS:          0  HIT:          0  MISS:          0
L1I PREFETCH  ACCESS:    7923829  HIT:    1466431  MISS:    6457398
L1I WRITEBACK ACCESS:          0  HIT:          0  MISS:          0
L1I PREFETCH  REQUESTED:   16232975  ISSUED:   16224513  USEFUL:    3448516  USELESS:    3008911
L1I AVERAGE MISS LATENCY: 14.879 cycles
L2C TOTAL     ACCESS:    8956957  HIT:    8876635  MISS:      80322
L2C LOAD      ACCESS:      51092  HIT:      31326  MISS:      19766
L2C RFO       ACCESS:      32025  HIT:        989  MISS:      31036
L2C PREFETCH  ACCESS:    8835475  HIT:    8806131  MISS:      29344
L2C WRITEBACK ACCESS:      38365  HIT:      38189  MISS:        176
L2C PREFETCH  REQUESTED:    4279506  ISSUED:    4276881  USEFUL:       2232  USELESS:      26603
L2C AVERAGE MISS LATENCY: 233.534 cycles
LLC TOTAL     ACCESS:    1213340  HIT:    1144018  MISS:      69322
LLC LOAD      ACCESS:      18501  HIT:       4930  MISS:      13571
LLC RFO       ACCESS:      31035  HIT:       3862  MISS:      27173
LLC PREFETCH  ACCESS:    1128511  HIT:    1100043  MISS:      28468
LLC WRITEBACK ACCESS:      35293  HIT:      35183  MISS:        110
LLC PREFETCH  REQUESTED:          0  ISSUED:          0  USEFUL:       3473  USELESS:      26473
LLC AVERAGE MISS LATENCY: 301.153 cycles
Major fault: 0 Minor fault: 1914
CPU 0 L1D next line prefetcher final stats

DRAM Statistics
 CHANNEL 0
 RQ ROW_BUFFER_HIT:      28929  ROW_BUFFER_MISS:      40279
 DBUS_CONGESTED:      64764
 WQ ROW_BUFFER_HIT:       8228  ROW_BUFFER_MISS:      24168  FULL:          0

 AVG_CONGESTED_CYCLE: 6

CPU 0 Branch Prediction Accuracy: 99.7719% MPKI: 0.38824 Average ROB Occupancy at Mispredict: 149.045

Branch types
NOT_BRANCH: 41489014 82.978%
BRANCH_DIRECT_JUMP: 449417 0.898834%
BRANCH_INDIRECT: 2330 0.00466%
BRANCH_CONDITIONAL: 5470016 10.94%
BRANCH_DIRECT_CALL: 1172188 2.34438%
BRANCH_INDIRECT_CALL: 122383 0.244766%
BRANCH_RETURN: 1294554 2.58911%
BRANCH_OTHER: 0 0%

