Initialize SIGNATURE TABLE
ST_SET: 1
ST_WAY: 256
ST_TAG_BIT: 16
ST_TAG_MASK: ffff

Initialize PATTERN TABLE
PT_SET: 512
PT_WAY: 4
SIG_DELTA_BIT: 7
C_SIG_BIT: 4
C_DELTA_BIT: 4

Initialize PREFETCH FILTER
FILTER_SET: 1024

*** ChampSim Multicore Out-of-Order Simulator ***

Warmup Instructions: 50000000
Simulation Instructions: 50000000
Number of CPUs: 1
LLC sets: 2048
LLC ways: 16
Off-chip DRAM Size: 4096 MB Channels: 1 Width: 64-bit Data Rate: 3200 MT/s

CPU 0 runs /home/ykhodke/ChampSim/dpc3_traces/server_017.champsimtrace.xz
CPU 0 Temporal Ancestry L1I prefetcher
CPU 0 L1D next line prefetcher
Heartbeat CPU 0 instructions: 10000001 cycles: 3647331 heartbeat IPC: 2.74173 cumulative IPC: 2.74173 (Simulation time: 0 hr 0 min 47 sec) 
Heartbeat CPU 0 instructions: 20000000 cycles: 7294653 heartbeat IPC: 2.74174 cumulative IPC: 2.74173 (Simulation time: 0 hr 1 min 31 sec) 
Heartbeat CPU 0 instructions: 30000002 cycles: 10946784 heartbeat IPC: 2.73813 cumulative IPC: 2.74053 (Simulation time: 0 hr 2 min 19 sec) 
Heartbeat CPU 0 instructions: 40000000 cycles: 14593478 heartbeat IPC: 2.74221 cumulative IPC: 2.74095 (Simulation time: 0 hr 3 min 9 sec) 
Heartbeat CPU 0 instructions: 50000001 cycles: 18251587 heartbeat IPC: 2.73365 cumulative IPC: 2.73949 (Simulation time: 0 hr 3 min 58 sec) 

Warmup complete CPU 0 instructions: 50000001 cycles: 18251587 (Simulation time: 0 hr 3 min 58 sec) 

Heartbeat CPU 0 instructions: 60000002 cycles: 36815322 heartbeat IPC: 0.538685 cumulative IPC: 0.538685 (Simulation time: 0 hr 4 min 52 sec) 
Heartbeat CPU 0 instructions: 70000002 cycles: 55539333 heartbeat IPC: 0.534074 cumulative IPC: 0.536369 (Simulation time: 0 hr 5 min 45 sec) 
Heartbeat CPU 0 instructions: 80000000 cycles: 73886313 heartbeat IPC: 0.545049 cumulative IPC: 0.539232 (Simulation time: 0 hr 6 min 39 sec) 
Heartbeat CPU 0 instructions: 90000002 cycles: 97818238 heartbeat IPC: 0.417852 cumulative IPC: 0.502723 (Simulation time: 0 hr 7 min 30 sec) 
Heartbeat CPU 0 instructions: 100000003 cycles: 118707412 heartbeat IPC: 0.478717 cumulative IPC: 0.497731 (Simulation time: 0 hr 8 min 31 sec) 
Finished CPU 0 instructions: 50000002 cycles: 100455825 cumulative IPC: 0.497731 (Simulation time: 0 hr 8 min 31 sec) 

ChampSim completed all CPUs

Region of Interest Statistics

CPU 0 cumulative IPC: 0.497731 instructions: 50000002 cycles: 100455825
L1D TOTAL     ACCESS:   18398142  HIT:   16232601  MISS:    2165541
L1D LOAD      ACCESS:    7029642  HIT:    6271777  MISS:     757865
L1D RFO       ACCESS:    5547066  HIT:    4687358  MISS:     859708
L1D PREFETCH  ACCESS:    5821434  HIT:    5273466  MISS:     547968
L1D WRITEBACK ACCESS:          0  HIT:          0  MISS:          0
L1D PREFETCH  REQUESTED:    7068903  ISSUED:    6879620  USEFUL:     185640  USELESS:     362389
L1D AVERAGE MISS LATENCY: 180.536 cycles
L1I TOTAL     ACCESS:   18091833  HIT:   11382191  MISS:    6709642
L1I LOAD      ACCESS:   10042018  HIT:    9997468  MISS:      44550
L1I RFO       ACCESS:          0  HIT:          0  MISS:          0
L1I PREFETCH  ACCESS:    8049815  HIT:    1384723  MISS:    6665092
L1I WRITEBACK ACCESS:          0  HIT:          0  MISS:          0
L1I PREFETCH  REQUESTED:   16720933  ISSUED:   16664808  USEFUL:    2820723  USELESS:    3844352
L1I AVERAGE MISS LATENCY: 16.4509 cycles
L2C TOTAL     ACCESS:   12633746  HIT:   10786317  MISS:    1847429
L2C LOAD      ACCESS:     561905  HIT:     227956  MISS:     333949
L2C RFO       ACCESS:     858734  HIT:      15953  MISS:     842781
L2C PREFETCH  ACCESS:   10090225  HIT:    9422774  MISS:     667451
L2C WRITEBACK ACCESS:    1122882  HIT:    1119634  MISS:       3248
L2C PREFETCH  REQUESTED:    4904516  ISSUED:    4898810  USEFUL:      21891  USELESS:     645888
L2C AVERAGE MISS LATENCY: 217.008 cycles
LLC TOTAL     ACCESS:    4124714  HIT:    2581940  MISS:    1542774
LLC LOAD      ACCESS:     333942  HIT:     168130  MISS:     165812
LLC RFO       ACCESS:     842781  HIT:     123209  MISS:     719572
LLC PREFETCH  ACCESS:    1881455  HIT:    1225890  MISS:     655565
LLC WRITEBACK ACCESS:    1066536  HIT:    1064711  MISS:       1825
LLC PREFETCH  REQUESTED:          0  ISSUED:          0  USEFUL:      41064  USELESS:     613518
LLC AVERAGE MISS LATENCY: 269.631 cycles
Major fault: 0 Minor fault: 24697
CPU 0 L1D next line prefetcher final stats

DRAM Statistics
 CHANNEL 0
 RQ ROW_BUFFER_HIT:     359506  ROW_BUFFER_MISS:    1181298
 DBUS_CONGESTED:    1446632
 WQ ROW_BUFFER_HIT:     271209  ROW_BUFFER_MISS:     609383  FULL:          0

 AVG_CONGESTED_CYCLE: 6

CPU 0 Branch Prediction Accuracy: 99.2833% MPKI: 1.20568 Average ROB Occupancy at Mispredict: 181.659

Branch types
NOT_BRANCH: 41588346 83.1767%
BRANCH_DIRECT_JUMP: 464501 0.929002%
BRANCH_INDIRECT: 45704 0.091408%
BRANCH_CONDITIONAL: 6147408 12.2948%
BRANCH_DIRECT_CALL: 675450 1.3509%
BRANCH_INDIRECT_CALL: 201532 0.403064%
BRANCH_RETURN: 876985 1.75397%
BRANCH_OTHER: 0 0%

