Initialize SIGNATURE TABLE
ST_SET: 1
ST_WAY: 256
ST_TAG_BIT: 16
ST_TAG_MASK: ffff

Initialize PATTERN TABLE
PT_SET: 512
PT_WAY: 4
SIG_DELTA_BIT: 7
C_SIG_BIT: 4
C_DELTA_BIT: 4

Initialize PREFETCH FILTER
FILTER_SET: 1024

*** ChampSim Multicore Out-of-Order Simulator ***

Warmup Instructions: 50000000
Simulation Instructions: 50000000
Number of CPUs: 1
LLC sets: 2048
LLC ways: 16
Off-chip DRAM Size: 4096 MB Channels: 1 Width: 64-bit Data Rate: 3200 MT/s

CPU 0 runs /home/ykhodke/ChampSim/dpc3_traces/server_017.champsimtrace.xz
CPU 0 L1I next line prefetcher
CPU 0 L1D next line prefetcher
Heartbeat CPU 0 instructions: 10000001 cycles: 3622285 heartbeat IPC: 2.76069 cumulative IPC: 2.76069 (Simulation time: 0 hr 0 min 15 sec) 
Heartbeat CPU 0 instructions: 20000000 cycles: 7242265 heartbeat IPC: 2.76245 cumulative IPC: 2.76157 (Simulation time: 0 hr 0 min 30 sec) 
Heartbeat CPU 0 instructions: 30000002 cycles: 10868797 heartbeat IPC: 2.75746 cumulative IPC: 2.7602 (Simulation time: 0 hr 0 min 45 sec) 
Heartbeat CPU 0 instructions: 40000000 cycles: 14490612 heartbeat IPC: 2.76105 cumulative IPC: 2.76041 (Simulation time: 0 hr 1 min 0 sec) 
Heartbeat CPU 0 instructions: 50000001 cycles: 18123532 heartbeat IPC: 2.75261 cumulative IPC: 2.75884 (Simulation time: 0 hr 1 min 15 sec) 

Warmup complete CPU 0 instructions: 50000001 cycles: 18123532 (Simulation time: 0 hr 1 min 15 sec) 

Heartbeat CPU 0 instructions: 60000002 cycles: 35442554 heartbeat IPC: 0.5774 cumulative IPC: 0.5774 (Simulation time: 0 hr 1 min 36 sec) 
Heartbeat CPU 0 instructions: 70000002 cycles: 52842302 heartbeat IPC: 0.574721 cumulative IPC: 0.576057 (Simulation time: 0 hr 1 min 57 sec) 
Heartbeat CPU 0 instructions: 80000000 cycles: 70030756 heartbeat IPC: 0.581786 cumulative IPC: 0.577954 (Simulation time: 0 hr 2 min 18 sec) 
Heartbeat CPU 0 instructions: 90000002 cycles: 93124585 heartbeat IPC: 0.433016 cumulative IPC: 0.533326 (Simulation time: 0 hr 2 min 39 sec) 
Heartbeat CPU 0 instructions: 100000003 cycles: 112903357 heartbeat IPC: 0.505593 cumulative IPC: 0.527538 (Simulation time: 0 hr 3 min 0 sec) 
Finished CPU 0 instructions: 50000002 cycles: 94779825 cumulative IPC: 0.527538 (Simulation time: 0 hr 3 min 0 sec) 

ChampSim completed all CPUs

Region of Interest Statistics

CPU 0 cumulative IPC: 0.527538 instructions: 50000002 cycles: 94779825
L1D TOTAL     ACCESS:   18371942  HIT:   16206351  MISS:    2165591
L1D LOAD      ACCESS:    7025900  HIT:    6284008  MISS:     741892
L1D RFO       ACCESS:    5507750  HIT:    4648644  MISS:     859106
L1D PREFETCH  ACCESS:    5838292  HIT:    5273699  MISS:     564593
L1D WRITEBACK ACCESS:          0  HIT:          0  MISS:          0
L1D PREFETCH  REQUESTED:    7063032  ISSUED:    6873367  USEFUL:     202190  USELESS:     362464
L1D AVERAGE MISS LATENCY: 175.142 cycles
L1I TOTAL     ACCESS:   14048161  HIT:   11381664  MISS:    2666497
L1I LOAD      ACCESS:    9883317  HIT:    9854400  MISS:      28917
L1I RFO       ACCESS:          0  HIT:          0  MISS:          0
L1I PREFETCH  ACCESS:    4164844  HIT:    1527264  MISS:    2637580
L1I WRITEBACK ACCESS:          0  HIT:          0  MISS:          0
L1I PREFETCH  REQUESTED:    4306599  ISSUED:    4306595  USEFUL:    2301204  USELESS:     336373
L1I AVERAGE MISS LATENCY: 17.8658 cycles
L2C TOTAL     ACCESS:    6984259  HIT:    5143017  MISS:    1841242
L2C LOAD      ACCESS:     553196  HIT:     226276  MISS:     326920
L2C RFO       ACCESS:     858684  HIT:      17493  MISS:     841191
L2C PREFETCH  ACCESS:    4449523  HIT:    3778534  MISS:     670989
L2C WRITEBACK ACCESS:    1122856  HIT:    1120714  MISS:       2142
L2C PREFETCH  REQUESTED:    4829776  ISSUED:    4823733  USEFUL:      22502  USELESS:     649206
L2C AVERAGE MISS LATENCY: 208.541 cycles
LLC TOTAL     ACCESS:    4257282  HIT:    2669625  MISS:    1587657
LLC LOAD      ACCESS:     326842  HIT:     170191  MISS:     156651
LLC RFO       ACCESS:     841152  HIT:     122668  MISS:     718484
LLC PREFETCH  ACCESS:    2027525  HIT:    1317531  MISS:     709994
LLC WRITEBACK ACCESS:    1061763  HIT:    1059235  MISS:       2528
LLC PREFETCH  REQUESTED:          0  ISSUED:          0  USEFUL:      50561  USELESS:     658536
LLC AVERAGE MISS LATENCY: 264.56 cycles
Major fault: 0 Minor fault: 24695
I-Shadow cache 408 bytes
Touched + WorthPF tables 24576 bytes 
MMA filter 174 bytes 
FNL filter 272 bytes 
TOTAL PREFETCHER STORAGE SIZE: 98134 bytes
CPU 0 L1I next line prefetcher final stats
CPU 0 L1D next line prefetcher final stats

DRAM Statistics
 CHANNEL 0
 RQ ROW_BUFFER_HIT:     386045  ROW_BUFFER_MISS:    1198934
 DBUS_CONGESTED:    1531267
 WQ ROW_BUFFER_HIT:     241437  ROW_BUFFER_MISS:     636951  FULL:          0

 AVG_CONGESTED_CYCLE: 6

CPU 0 Branch Prediction Accuracy: 99.2833% MPKI: 1.20568 Average ROB Occupancy at Mispredict: 182.071

Branch types
NOT_BRANCH: 41588350 83.1767%
BRANCH_DIRECT_JUMP: 464501 0.929002%
BRANCH_INDIRECT: 45704 0.091408%
BRANCH_CONDITIONAL: 6147408 12.2948%
BRANCH_DIRECT_CALL: 675450 1.3509%
BRANCH_INDIRECT_CALL: 201532 0.403064%
BRANCH_RETURN: 876985 1.75397%
BRANCH_OTHER: 0 0%

