Initialize SIGNATURE TABLE
ST_SET: 1
ST_WAY: 256
ST_TAG_BIT: 16
ST_TAG_MASK: ffff

Initialize PATTERN TABLE
PT_SET: 512
PT_WAY: 4
SIG_DELTA_BIT: 7
C_SIG_BIT: 4
C_DELTA_BIT: 4

Initialize PREFETCH FILTER
FILTER_SET: 1024

*** ChampSim Multicore Out-of-Order Simulator ***

Warmup Instructions: 50000000
Simulation Instructions: 50000000
Number of CPUs: 1
LLC sets: 2048
LLC ways: 16
Off-chip DRAM Size: 4096 MB Channels: 1 Width: 64-bit Data Rate: 3200 MT/s

CPU 0 runs /home/ykhodke/ChampSim/dpc3_traces/server_001.champsimtrace.xz
CPU 0 Temporal Ancestry L1I prefetcher
CPU 0 L1D next line prefetcher
Heartbeat CPU 0 instructions: 10000002 cycles: 3165524 heartbeat IPC: 3.15904 cumulative IPC: 3.15904 (Simulation time: 0 hr 1 min 21 sec) 
Heartbeat CPU 0 instructions: 20000000 cycles: 6391206 heartbeat IPC: 3.10012 cumulative IPC: 3.1293 (Simulation time: 0 hr 2 min 53 sec) 
Heartbeat CPU 0 instructions: 30000003 cycles: 9591225 heartbeat IPC: 3.12498 cumulative IPC: 3.12786 (Simulation time: 0 hr 4 min 26 sec) 
Heartbeat CPU 0 instructions: 40000002 cycles: 12810230 heartbeat IPC: 3.10655 cumulative IPC: 3.1225 (Simulation time: 0 hr 5 min 59 sec) 
Heartbeat CPU 0 instructions: 50000000 cycles: 16041424 heartbeat IPC: 3.09483 cumulative IPC: 3.11693 (Simulation time: 0 hr 7 min 32 sec) 

Warmup complete CPU 0 instructions: 50000004 cycles: 16041425 (Simulation time: 0 hr 7 min 32 sec) 

Heartbeat CPU 0 instructions: 60000000 cycles: 23456286 heartbeat IPC: 1.34864 cumulative IPC: 1.34864 (Simulation time: 0 hr 8 min 53 sec) 
Heartbeat CPU 0 instructions: 70000001 cycles: 30585582 heartbeat IPC: 1.40266 cumulative IPC: 1.37512 (Simulation time: 0 hr 10 min 14 sec) 
Heartbeat CPU 0 instructions: 80000002 cycles: 37785017 heartbeat IPC: 1.389 cumulative IPC: 1.37972 (Simulation time: 0 hr 11 min 36 sec) 
Heartbeat CPU 0 instructions: 90000002 cycles: 45254473 heartbeat IPC: 1.33879 cumulative IPC: 1.36925 (Simulation time: 0 hr 12 min 58 sec) 
Heartbeat CPU 0 instructions: 100000003 cycles: 52346820 heartbeat IPC: 1.40997 cumulative IPC: 1.37721 (Simulation time: 0 hr 14 min 19 sec) 
Finished CPU 0 instructions: 50000003 cycles: 36305396 cumulative IPC: 1.37721 (Simulation time: 0 hr 14 min 19 sec) 

ChampSim completed all CPUs

Region of Interest Statistics

CPU 0 cumulative IPC: 1.37721 instructions: 50000003 cycles: 36305396
L1D TOTAL     ACCESS:   17699872  HIT:   17188662  MISS:     511210
L1D LOAD      ACCESS:    6486950  HIT:    6280442  MISS:     206508
L1D RFO       ACCESS:    5057161  HIT:    4974315  MISS:      82846
L1D PREFETCH  ACCESS:    6155761  HIT:    5933905  MISS:     221856
L1D WRITEBACK ACCESS:          0  HIT:          0  MISS:          0
L1D PREFETCH  REQUESTED:    6518970  ISSUED:    6340361  USEFUL:     130188  USELESS:      91796
L1D AVERAGE MISS LATENCY: 98.9387 cycles
L1I TOTAL     ACCESS:   13624063  HIT:    9155674  MISS:    4468389
L1I LOAD      ACCESS:    8404739  HIT:    8292572  MISS:     112167
L1I RFO       ACCESS:          0  HIT:          0  MISS:          0
L1I PREFETCH  ACCESS:    5219324  HIT:     863102  MISS:    4356222
L1I WRITEBACK ACCESS:          0  HIT:          0  MISS:          0
L1I PREFETCH  REQUESTED:   11214153  ISSUED:   10964011  USEFUL:    1134877  USELESS:    3221368
L1I AVERAGE MISS LATENCY: 18.424 cycles
L2C TOTAL     ACCESS:    6703723  HIT:    6128491  MISS:     575232
L2C LOAD      ACCESS:     239531  HIT:     117759  MISS:     121772
L2C RFO       ACCESS:      80957  HIT:       8908  MISS:      72049
L2C PREFETCH  ACCESS:    6175372  HIT:    5796532  MISS:     378840
L2C WRITEBACK ACCESS:     207863  HIT:     205292  MISS:       2571
L2C PREFETCH  REQUESTED:    3270785  ISSUED:    3266311  USEFUL:      26519  USELESS:     351648
L2C AVERAGE MISS LATENCY: 106.628 cycles
LLC TOTAL     ACCESS:    1878019  HIT:    1525669  MISS:     352350
LLC LOAD      ACCESS:     121564  HIT:      83592  MISS:      37972
LLC RFO       ACCESS:      72047  HIT:       7890  MISS:      64157
LLC PREFETCH  ACCESS:    1511815  HIT:    1261702  MISS:     250113
LLC WRITEBACK ACCESS:     172593  HIT:     172485  MISS:        108
LLC PREFETCH  REQUESTED:          0  ISSUED:          0  USEFUL:      27634  USELESS:     217129
LLC AVERAGE MISS LATENCY: 230.055 cycles
Major fault: 0 Minor fault: 16701
CPU 0 L1D next line prefetcher final stats

DRAM Statistics
 CHANNEL 0
 RQ ROW_BUFFER_HIT:      90280  ROW_BUFFER_MISS:     261912
 DBUS_CONGESTED:     215359
 WQ ROW_BUFFER_HIT:      38200  ROW_BUFFER_MISS:     121323  FULL:          0

 AVG_CONGESTED_CYCLE: 6

CPU 0 Branch Prediction Accuracy: 99.5889% MPKI: 0.70112 Average ROB Occupancy at Mispredict: 107.445

Branch types
NOT_BRANCH: 41473742 82.9475%
BRANCH_DIRECT_JUMP: 347942 0.695884%
BRANCH_INDIRECT: 148212 0.296424%
BRANCH_CONDITIONAL: 6817300 13.6346%
BRANCH_DIRECT_CALL: 570725 1.14145%
BRANCH_INDIRECT_CALL: 25133 0.050266%
BRANCH_RETURN: 617124 1.23425%
BRANCH_OTHER: 0 0%

