Initialize SIGNATURE TABLE
ST_SET: 1
ST_WAY: 256
ST_TAG_BIT: 16
ST_TAG_MASK: ffff

Initialize PATTERN TABLE
PT_SET: 512
PT_WAY: 4
SIG_DELTA_BIT: 7
C_SIG_BIT: 4
C_DELTA_BIT: 4

Initialize PREFETCH FILTER
FILTER_SET: 1024

*** ChampSim Multicore Out-of-Order Simulator ***

Warmup Instructions: 50000000
Simulation Instructions: 50000000
Number of CPUs: 1
LLC sets: 2048
LLC ways: 16
Off-chip DRAM Size: 4096 MB Channels: 1 Width: 64-bit Data Rate: 3200 MT/s

CPU 0 runs /home/ykhodke/ChampSim/dpc3_traces/server_004.champsimtrace.xz
CPU 0 L1I next line prefetcher
CPU 0 L1D next line prefetcher
Heartbeat CPU 0 instructions: 10000002 cycles: 3225189 heartbeat IPC: 3.10059 cumulative IPC: 3.10059 (Simulation time: 0 hr 0 min 14 sec) 
Heartbeat CPU 0 instructions: 20000002 cycles: 6557548 heartbeat IPC: 3.00088 cumulative IPC: 3.04992 (Simulation time: 0 hr 0 min 28 sec) 
Heartbeat CPU 0 instructions: 30000000 cycles: 11674501 heartbeat IPC: 1.95429 cumulative IPC: 2.5697 (Simulation time: 0 hr 0 min 45 sec) 
Heartbeat CPU 0 instructions: 40000003 cycles: 15419788 heartbeat IPC: 2.67002 cumulative IPC: 2.59407 (Simulation time: 0 hr 0 min 59 sec) 
Heartbeat CPU 0 instructions: 50000003 cycles: 18643978 heartbeat IPC: 3.10155 cumulative IPC: 2.68183 (Simulation time: 0 hr 1 min 13 sec) 

Warmup complete CPU 0 instructions: 50000003 cycles: 18643978 (Simulation time: 0 hr 1 min 13 sec) 

Heartbeat CPU 0 instructions: 60000002 cycles: 27190548 heartbeat IPC: 1.17006 cumulative IPC: 1.17006 (Simulation time: 0 hr 1 min 27 sec) 
Heartbeat CPU 0 instructions: 70000000 cycles: 35216964 heartbeat IPC: 1.24589 cumulative IPC: 1.20678 (Simulation time: 0 hr 1 min 41 sec) 
Heartbeat CPU 0 instructions: 80000001 cycles: 56123587 heartbeat IPC: 0.478317 cumulative IPC: 0.800435 (Simulation time: 0 hr 2 min 3 sec) 
Heartbeat CPU 0 instructions: 90000003 cycles: 70920756 heartbeat IPC: 0.675805 cumulative IPC: 0.765158 (Simulation time: 0 hr 2 min 19 sec) 
Heartbeat CPU 0 instructions: 100000003 cycles: 79347367 heartbeat IPC: 1.18672 cumulative IPC: 0.823677 (Simulation time: 0 hr 2 min 33 sec) 
Finished CPU 0 instructions: 50000000 cycles: 60703389 cumulative IPC: 0.823677 (Simulation time: 0 hr 2 min 33 sec) 

ChampSim completed all CPUs

Region of Interest Statistics

CPU 0 cumulative IPC: 0.823677 instructions: 50000000 cycles: 60703389
L1D TOTAL     ACCESS:   21626673  HIT:   17555658  MISS:    4071015
L1D LOAD      ACCESS:    8596783  HIT:    6577936  MISS:    2018847
L1D RFO       ACCESS:    4643368  HIT:    4536518  MISS:     106850
L1D PREFETCH  ACCESS:    8386522  HIT:    6441204  MISS:    1945318
L1D WRITEBACK ACCESS:          0  HIT:          0  MISS:          0
L1D PREFETCH  REQUESTED:    8631626  ISSUED:    8542327  USEFUL:     105739  USELESS:    1839573
L1D AVERAGE MISS LATENCY: 23.0042 cycles
L1I TOTAL     ACCESS:   13164071  HIT:   11616706  MISS:    1547365
L1I LOAD      ACCESS:   10708024  HIT:   10576643  MISS:     131381
L1I RFO       ACCESS:          0  HIT:          0  MISS:          0
L1I PREFETCH  ACCESS:    2456047  HIT:    1040063  MISS:    1415984
L1I WRITEBACK ACCESS:          0  HIT:          0  MISS:          0
L1I PREFETCH  REQUESTED:    2591238  ISSUED:    2590906  USEFUL:     993516  USELESS:     422437
L1I AVERAGE MISS LATENCY: 34.1837 cycles
L2C TOTAL     ACCESS:    7056998  HIT:    5974401  MISS:    1082597
L2C LOAD      ACCESS:    2055715  HIT:    1825105  MISS:     230610
L2C RFO       ACCESS:     105618  HIT:      57631  MISS:      47987
L2C PREFETCH  ACCESS:    4650632  HIT:    3848098  MISS:     802534
L2C WRITEBACK ACCESS:     245033  HIT:     243567  MISS:       1466
L2C PREFETCH  REQUESTED:    6577438  ISSUED:    6576449  USEFUL:      25360  USELESS:     777101
L2C AVERAGE MISS LATENCY: 60.1881 cycles
LLC TOTAL     ACCESS:    2396593  HIT:    2163929  MISS:     232664
LLC LOAD      ACCESS:     230146  HIT:     191156  MISS:      38990
LLC RFO       ACCESS:      47983  HIT:      32827  MISS:      15156
LLC PREFETCH  ACCESS:    1978504  HIT:    1800282  MISS:     178222
LLC WRITEBACK ACCESS:     139960  HIT:     139664  MISS:        296
LLC PREFETCH  REQUESTED:          0  ISSUED:          0  USEFUL:      15794  USELESS:     162195
LLC AVERAGE MISS LATENCY: 178.548 cycles
Major fault: 0 Minor fault: 7599
I-Shadow cache 408 bytes
Touched + WorthPF tables 24576 bytes 
MMA filter 174 bytes 
FNL filter 272 bytes 
TOTAL PREFETCHER STORAGE SIZE: 98134 bytes
CPU 0 L1I next line prefetcher final stats
CPU 0 L1D next line prefetcher final stats

DRAM Statistics
 CHANNEL 0
 RQ ROW_BUFFER_HIT:      48163  ROW_BUFFER_MISS:     184170
 DBUS_CONGESTED:     101847
 WQ ROW_BUFFER_HIT:      10473  ROW_BUFFER_MISS:      43560  FULL:          0

 AVG_CONGESTED_CYCLE: 5

CPU 0 Branch Prediction Accuracy: 98.1603% MPKI: 3.89124 Average ROB Occupancy at Mispredict: 67.327

Branch types
NOT_BRANCH: 39423755 78.8475%
BRANCH_DIRECT_JUMP: 551642 1.10328%
BRANCH_INDIRECT: 139368 0.278736%
BRANCH_CONDITIONAL: 7920858 15.8417%
BRANCH_DIRECT_CALL: 776072 1.55214%
BRANCH_INDIRECT_CALL: 194644 0.389288%
BRANCH_RETURN: 993311 1.98662%
BRANCH_OTHER: 0 0%

