Initialize SIGNATURE TABLE
ST_SET: 1
ST_WAY: 256
ST_TAG_BIT: 16
ST_TAG_MASK: ffff

Initialize PATTERN TABLE
PT_SET: 512
PT_WAY: 4
SIG_DELTA_BIT: 7
C_SIG_BIT: 4
C_DELTA_BIT: 4

Initialize PREFETCH FILTER
FILTER_SET: 1024

*** ChampSim Multicore Out-of-Order Simulator ***

Warmup Instructions: 50000000
Simulation Instructions: 50000000
Number of CPUs: 1
LLC sets: 2048
LLC ways: 16
Off-chip DRAM Size: 4096 MB Channels: 1 Width: 64-bit Data Rate: 3200 MT/s

CPU 0 runs /home/ykhodke/ChampSim/dpc3_traces/server_015.champsimtrace.xz
CPU 0 Temporal Ancestry L1I prefetcher
CPU 0 L1D next line prefetcher
Heartbeat CPU 0 instructions: 10000002 cycles: 3519545 heartbeat IPC: 2.84128 cumulative IPC: 2.84128 (Simulation time: 0 hr 0 min 46 sec) 
Heartbeat CPU 0 instructions: 20000001 cycles: 7109487 heartbeat IPC: 2.78556 cumulative IPC: 2.81314 (Simulation time: 0 hr 2 min 25 sec) 
Heartbeat CPU 0 instructions: 30000001 cycles: 10648670 heartbeat IPC: 2.82551 cumulative IPC: 2.81725 (Simulation time: 0 hr 4 min 5 sec) 
Heartbeat CPU 0 instructions: 40000002 cycles: 14196711 heartbeat IPC: 2.81846 cumulative IPC: 2.81755 (Simulation time: 0 hr 5 min 42 sec) 
Heartbeat CPU 0 instructions: 50000002 cycles: 17744971 heartbeat IPC: 2.81828 cumulative IPC: 2.8177 (Simulation time: 0 hr 7 min 19 sec) 

Warmup complete CPU 0 instructions: 50000002 cycles: 17744971 (Simulation time: 0 hr 7 min 19 sec) 

Heartbeat CPU 0 instructions: 60000002 cycles: 24060309 heartbeat IPC: 1.58345 cumulative IPC: 1.58345 (Simulation time: 0 hr 8 min 42 sec) 
Heartbeat CPU 0 instructions: 70000003 cycles: 30377880 heartbeat IPC: 1.58289 cumulative IPC: 1.58317 (Simulation time: 0 hr 10 min 6 sec) 
Heartbeat CPU 0 instructions: 80000000 cycles: 36692755 heartbeat IPC: 1.58356 cumulative IPC: 1.5833 (Simulation time: 0 hr 11 min 29 sec) 
Heartbeat CPU 0 instructions: 90000000 cycles: 43024543 heartbeat IPC: 1.57933 cumulative IPC: 1.58231 (Simulation time: 0 hr 12 min 52 sec) 
Heartbeat CPU 0 instructions: 100000002 cycles: 49351700 heartbeat IPC: 1.58049 cumulative IPC: 1.58194 (Simulation time: 0 hr 14 min 15 sec) 
Finished CPU 0 instructions: 50000000 cycles: 31606729 cumulative IPC: 1.58194 (Simulation time: 0 hr 14 min 15 sec) 

ChampSim completed all CPUs

Region of Interest Statistics

CPU 0 cumulative IPC: 1.58194 instructions: 50000000 cycles: 31606729
L1D TOTAL     ACCESS:   21822200  HIT:   21805438  MISS:      16762
L1D LOAD      ACCESS:    6686894  HIT:    6686366  MISS:        528
L1D RFO       ACCESS:    8561528  HIT:    8561432  MISS:         96
L1D PREFETCH  ACCESS:    6573778  HIT:    6557640  MISS:      16138
L1D WRITEBACK ACCESS:          0  HIT:          0  MISS:          0
L1D PREFETCH  REQUESTED:    6686954  ISSUED:    6578268  USEFUL:         86  USELESS:      16049
L1D AVERAGE MISS LATENCY: 17.4051 cycles
L1I TOTAL     ACCESS:   18252043  HIT:   11316904  MISS:    6935139
L1I LOAD      ACCESS:    9892073  HIT:    9863164  MISS:      28909
L1I RFO       ACCESS:          0  HIT:          0  MISS:          0
L1I PREFETCH  ACCESS:    8359970  HIT:    1453740  MISS:    6906230
L1I WRITEBACK ACCESS:          0  HIT:          0  MISS:          0
L1I PREFETCH  REQUESTED:   17122219  ISSUED:   17118795  USEFUL:    3633241  USELESS:    3272991
L1I AVERAGE MISS LATENCY: 14.5681 cycles
L2C TOTAL     ACCESS:    9814011  HIT:    9813149  MISS:        862
L2C LOAD      ACCESS:      21430  HIT:      21302  MISS:        128
L2C RFO       ACCESS:         94  HIT:         86  MISS:          8
L2C PREFETCH  ACCESS:    9792138  HIT:    9791427  MISS:        711
L2C WRITEBACK ACCESS:        349  HIT:        334  MISS:         15
L2C PREFETCH  REQUESTED:    4523295  ISSUED:    4521858  USEFUL:        105  USELESS:        393
L2C AVERAGE MISS LATENCY: 141.072 cycles
LLC TOTAL     ACCESS:     924636  HIT:     923481  MISS:       1155
LLC LOAD      ACCESS:        128  HIT:        113  MISS:         15
LLC RFO       ACCESS:          8  HIT:          6  MISS:          2
LLC PREFETCH  ACCESS:     924253  HIT:     923121  MISS:       1132
LLC WRITEBACK ACCESS:        247  HIT:        241  MISS:          6
LLC PREFETCH  REQUESTED:          0  ISSUED:          0  USEFUL:         13  USELESS:        256
LLC AVERAGE MISS LATENCY: 743.595 cycles
Major fault: 0 Minor fault: 1891
CPU 0 L1D next line prefetcher final stats

DRAM Statistics
 CHANNEL 0
 RQ ROW_BUFFER_HIT:        112  ROW_BUFFER_MISS:       1037
 DBUS_CONGESTED:        754
 WQ ROW_BUFFER_HIT:        104  ROW_BUFFER_MISS:        739  FULL:          0

 AVG_CONGESTED_CYCLE: 6

CPU 0 Branch Prediction Accuracy: 99.9085% MPKI: 0.15428 Average ROB Occupancy at Mispredict: 286.399

Branch types
NOT_BRANCH: 41573148 83.1463%
BRANCH_DIRECT_JUMP: 436254 0.872508%
BRANCH_INDIRECT: 0 0%
BRANCH_CONDITIONAL: 5395897 10.7918%
BRANCH_DIRECT_CALL: 1173391 2.34678%
BRANCH_INDIRECT_CALL: 123912 0.247824%
BRANCH_RETURN: 1297311 2.59462%
BRANCH_OTHER: 0 0%

