Initialize SIGNATURE TABLE
ST_SET: 1
ST_WAY: 256
ST_TAG_BIT: 16
ST_TAG_MASK: ffff

Initialize PATTERN TABLE
PT_SET: 512
PT_WAY: 4
SIG_DELTA_BIT: 7
C_SIG_BIT: 4
C_DELTA_BIT: 4

Initialize PREFETCH FILTER
FILTER_SET: 1024

*** ChampSim Multicore Out-of-Order Simulator ***

Warmup Instructions: 50000000
Simulation Instructions: 50000000
Number of CPUs: 1
LLC sets: 2048
LLC ways: 16
Off-chip DRAM Size: 4096 MB Channels: 1 Width: 64-bit Data Rate: 3200 MT/s

CPU 0 runs /home/ykhodke/ChampSim/dpc3_traces/server_023.champsimtrace.xz
CPU 0 Temporal Ancestry L1I prefetcher
CPU 0 L1D next line prefetcher
Heartbeat CPU 0 instructions: 10000000 cycles: 3530459 heartbeat IPC: 2.83249 cumulative IPC: 2.83249 (Simulation time: 0 hr 1 min 23 sec) 
Heartbeat CPU 0 instructions: 20000000 cycles: 7059627 heartbeat IPC: 2.83353 cumulative IPC: 2.83301 (Simulation time: 0 hr 2 min 48 sec) 
Heartbeat CPU 0 instructions: 30000001 cycles: 10584436 heartbeat IPC: 2.83703 cumulative IPC: 2.83435 (Simulation time: 0 hr 4 min 14 sec) 
Heartbeat CPU 0 instructions: 40000003 cycles: 14111554 heartbeat IPC: 2.83518 cumulative IPC: 2.83456 (Simulation time: 0 hr 5 min 41 sec) 
Heartbeat CPU 0 instructions: 50000001 cycles: 17644893 heartbeat IPC: 2.83018 cumulative IPC: 2.83368 (Simulation time: 0 hr 7 min 9 sec) 

Warmup complete CPU 0 instructions: 50000001 cycles: 17644893 (Simulation time: 0 hr 7 min 9 sec) 

Heartbeat CPU 0 instructions: 60000002 cycles: 25047359 heartbeat IPC: 1.3509 cumulative IPC: 1.3509 (Simulation time: 0 hr 8 min 27 sec) 
Heartbeat CPU 0 instructions: 70000000 cycles: 32570801 heartbeat IPC: 1.32918 cumulative IPC: 1.33995 (Simulation time: 0 hr 9 min 49 sec) 
Heartbeat CPU 0 instructions: 80000000 cycles: 40010628 heartbeat IPC: 1.34412 cumulative IPC: 1.34134 (Simulation time: 0 hr 11 min 14 sec) 
Heartbeat CPU 0 instructions: 90000000 cycles: 47361086 heartbeat IPC: 1.36046 cumulative IPC: 1.34607 (Simulation time: 0 hr 12 min 37 sec) 
Heartbeat CPU 0 instructions: 100000001 cycles: 54712391 heartbeat IPC: 1.3603 cumulative IPC: 1.34889 (Simulation time: 0 hr 14 min 2 sec) 
Finished CPU 0 instructions: 50000000 cycles: 37067498 cumulative IPC: 1.34889 (Simulation time: 0 hr 14 min 2 sec) 

ChampSim completed all CPUs

Region of Interest Statistics

CPU 0 cumulative IPC: 1.34889 instructions: 50000000 cycles: 37067498
L1D TOTAL     ACCESS:   19722445  HIT:   18255347  MISS:    1467098
L1D LOAD      ACCESS:    7037864  HIT:    6375118  MISS:     662746
L1D RFO       ACCESS:    5972789  HIT:    5710686  MISS:     262103
L1D PREFETCH  ACCESS:    6711792  HIT:    6169543  MISS:     542249
L1D WRITEBACK ACCESS:          0  HIT:          0  MISS:          0
L1D PREFETCH  REQUESTED:    7095715  ISSUED:    6978025  USEFUL:     127701  USELESS:     414556
L1D AVERAGE MISS LATENCY: 28.9576 cycles
L1I TOTAL     ACCESS:   22240470  HIT:   10936514  MISS:   11303956
L1I LOAD      ACCESS:    9674615  HIT:    9196868  MISS:     477747
L1I RFO       ACCESS:          0  HIT:          0  MISS:          0
L1I PREFETCH  ACCESS:   12565855  HIT:    1739646  MISS:   10826209
L1I WRITEBACK ACCESS:          0  HIT:          0  MISS:          0
L1I PREFETCH  REQUESTED:   27689276  ISSUED:   25471038  USEFUL:    2474193  USELESS:    8352014
L1I AVERAGE MISS LATENCY: 15.8957 cycles
L2C TOTAL     ACCESS:   15304855  HIT:   14074267  MISS:    1230588
L2C LOAD      ACCESS:     882158  HIT:     646678  MISS:     235480
L2C RFO       ACCESS:     259553  HIT:     130351  MISS:     129202
L2C PREFETCH  ACCESS:   13663900  HIT:   12822143  MISS:     841757
L2C WRITEBACK ACCESS:     499244  HIT:     475095  MISS:      24149
L2C PREFETCH  REQUESTED:    3137524  ISSUED:    3136965  USEFUL:      46912  USELESS:     794075
L2C AVERAGE MISS LATENCY: 35.2556 cycles
LLC TOTAL     ACCESS:    2025993  HIT:    1979396  MISS:      46597
LLC LOAD      ACCESS:     235356  HIT:     229403  MISS:       5953
LLC RFO       ACCESS:     129194  HIT:     110980  MISS:      18214
LLC PREFETCH  ACCESS:    1434385  HIT:    1412022  MISS:      22363
LLC WRITEBACK ACCESS:     227058  HIT:     226991  MISS:         67
LLC PREFETCH  REQUESTED:          0  ISSUED:          0  USEFUL:       1441  USELESS:      20512
LLC AVERAGE MISS LATENCY: 186.595 cycles
Major fault: 0 Minor fault: 2776
CPU 0 L1D next line prefetcher final stats

DRAM Statistics
 CHANNEL 0
 RQ ROW_BUFFER_HIT:      14247  ROW_BUFFER_MISS:      32271
 DBUS_CONGESTED:      30059
 WQ ROW_BUFFER_HIT:       2404  ROW_BUFFER_MISS:      18816  FULL:          0

 AVG_CONGESTED_CYCLE: 6

CPU 0 Branch Prediction Accuracy: 99.6798% MPKI: 0.58608 Average ROB Occupancy at Mispredict: 131.365

Branch types
NOT_BRANCH: 40848313 81.6966%
BRANCH_DIRECT_JUMP: 548372 1.09674%
BRANCH_INDIRECT: 189802 0.379604%
BRANCH_CONDITIONAL: 6372769 12.7455%
BRANCH_DIRECT_CALL: 862207 1.72441%
BRANCH_INDIRECT_CALL: 158149 0.316298%
BRANCH_RETURN: 1020346 2.04069%
BRANCH_OTHER: 0 0%

