Initialize SIGNATURE TABLE
ST_SET: 1
ST_WAY: 256
ST_TAG_BIT: 16
ST_TAG_MASK: ffff

Initialize PATTERN TABLE
PT_SET: 512
PT_WAY: 4
SIG_DELTA_BIT: 7
C_SIG_BIT: 4
C_DELTA_BIT: 4

Initialize PREFETCH FILTER
FILTER_SET: 1024

*** ChampSim Multicore Out-of-Order Simulator ***

Warmup Instructions: 50000000
Simulation Instructions: 50000000
Number of CPUs: 1
LLC sets: 2048
LLC ways: 16
Off-chip DRAM Size: 4096 MB Channels: 1 Width: 64-bit Data Rate: 3200 MT/s

CPU 0 runs /home/ykhodke/ChampSim/dpc3_traces/server_023.champsimtrace.xz
CPU 0 L1I next line prefetcher
CPU 0 L1D next line prefetcher
Heartbeat CPU 0 instructions: 10000000 cycles: 3502415 heartbeat IPC: 2.85517 cumulative IPC: 2.85517 (Simulation time: 0 hr 0 min 15 sec) 
Heartbeat CPU 0 instructions: 20000000 cycles: 7003570 heartbeat IPC: 2.8562 cumulative IPC: 2.85569 (Simulation time: 0 hr 0 min 29 sec) 
Heartbeat CPU 0 instructions: 30000001 cycles: 10496297 heartbeat IPC: 2.86309 cumulative IPC: 2.85815 (Simulation time: 0 hr 0 min 44 sec) 
Heartbeat CPU 0 instructions: 40000003 cycles: 13994996 heartbeat IPC: 2.85821 cumulative IPC: 2.85816 (Simulation time: 0 hr 0 min 59 sec) 
Heartbeat CPU 0 instructions: 50000001 cycles: 17496086 heartbeat IPC: 2.85625 cumulative IPC: 2.85778 (Simulation time: 0 hr 1 min 14 sec) 

Warmup complete CPU 0 instructions: 50000001 cycles: 17496086 (Simulation time: 0 hr 1 min 14 sec) 

Heartbeat CPU 0 instructions: 60000002 cycles: 24248431 heartbeat IPC: 1.48097 cumulative IPC: 1.48097 (Simulation time: 0 hr 1 min 29 sec) 
Heartbeat CPU 0 instructions: 70000002 cycles: 31206656 heartbeat IPC: 1.43715 cumulative IPC: 1.45873 (Simulation time: 0 hr 1 min 45 sec) 
Heartbeat CPU 0 instructions: 80000000 cycles: 38076620 heartbeat IPC: 1.45561 cumulative IPC: 1.45769 (Simulation time: 0 hr 2 min 0 sec) 
Heartbeat CPU 0 instructions: 90000000 cycles: 44988735 heartbeat IPC: 1.44674 cumulative IPC: 1.45493 (Simulation time: 0 hr 2 min 15 sec) 
Heartbeat CPU 0 instructions: 100000001 cycles: 51842178 heartbeat IPC: 1.45912 cumulative IPC: 1.45577 (Simulation time: 0 hr 2 min 30 sec) 
Finished CPU 0 instructions: 50000000 cycles: 34346092 cumulative IPC: 1.45577 (Simulation time: 0 hr 2 min 30 sec) 

ChampSim completed all CPUs

Region of Interest Statistics

CPU 0 cumulative IPC: 1.45577 instructions: 50000000 cycles: 34346092
L1D TOTAL     ACCESS:   19351868  HIT:   17884923  MISS:    1466945
L1D LOAD      ACCESS:    6846871  HIT:    6185236  MISS:     661635
L1D RFO       ACCESS:    5981108  HIT:    5719575  MISS:     261533
L1D PREFETCH  ACCESS:    6523889  HIT:    5980112  MISS:     543777
L1D WRITEBACK ACCESS:          0  HIT:          0  MISS:          0
L1D PREFETCH  REQUESTED:    6897618  ISSUED:    6776013  USEFUL:     129112  USELESS:     414673
L1D AVERAGE MISS LATENCY: 24.8219 cycles
L1I TOTAL     ACCESS:   13865823  HIT:   10603592  MISS:    3262231
L1I LOAD      ACCESS:    9430212  HIT:    9340391  MISS:      89821
L1I RFO       ACCESS:          0  HIT:          0  MISS:          0
L1I PREFETCH  ACCESS:    4435611  HIT:    1263201  MISS:    3172410
L1I WRITEBACK ACCESS:          0  HIT:          0  MISS:          0
L1I PREFETCH  REQUESTED:    4605483  ISSUED:    4604811  USEFUL:    2395951  USELESS:     776481
L1I AVERAGE MISS LATENCY: 18.6368 cycles
L2C TOTAL     ACCESS:    6378638  HIT:    5635802  MISS:     742836
L2C LOAD      ACCESS:     638409  HIT:     508931  MISS:     129478
L2C RFO       ACCESS:     259384  HIT:     165973  MISS:      93411
L2C PREFETCH  ACCESS:    4981558  HIT:    4463844  MISS:     517714
L2C WRITEBACK ACCESS:     499287  HIT:     497054  MISS:       2233
L2C PREFETCH  REQUESTED:    6230293  ISSUED:    6218071  USEFUL:      16194  USELESS:     501594
L2C AVERAGE MISS LATENCY: 41.9868 cycles
LLC TOTAL     ACCESS:    2350515  HIT:    2298257  MISS:      52258
LLC LOAD      ACCESS:     129262  HIT:     122947  MISS:       6315
LLC RFO       ACCESS:      93378  HIT:      75588  MISS:      17790
LLC PREFETCH  ACCESS:    1978930  HIT:    1951049  MISS:      27881
LLC WRITEBACK ACCESS:     148945  HIT:     148673  MISS:        272
LLC PREFETCH  REQUESTED:          0  ISSUED:          0  USEFUL:       2746  USELESS:      25167
LLC AVERAGE MISS LATENCY: 181.049 cycles
Major fault: 0 Minor fault: 2767
I-Shadow cache 408 bytes
Touched + WorthPF tables 24576 bytes 
MMA filter 174 bytes 
FNL filter 272 bytes 
TOTAL PREFETCHER STORAGE SIZE: 98134 bytes
CPU 0 L1I next line prefetcher final stats
CPU 0 L1D next line prefetcher final stats

DRAM Statistics
 CHANNEL 0
 RQ ROW_BUFFER_HIT:      15672  ROW_BUFFER_MISS:      36292
 DBUS_CONGESTED:      33381
 WQ ROW_BUFFER_HIT:       2572  ROW_BUFFER_MISS:      18877  FULL:          0

 AVG_CONGESTED_CYCLE: 6

CPU 0 Branch Prediction Accuracy: 99.6798% MPKI: 0.58608 Average ROB Occupancy at Mispredict: 147.645

Branch types
NOT_BRANCH: 40848334 81.6967%
BRANCH_DIRECT_JUMP: 548372 1.09674%
BRANCH_INDIRECT: 189802 0.379604%
BRANCH_CONDITIONAL: 6372772 12.7455%
BRANCH_DIRECT_CALL: 862207 1.72441%
BRANCH_INDIRECT_CALL: 158149 0.316298%
BRANCH_RETURN: 1020345 2.04069%
BRANCH_OTHER: 0 0%

