Initialize SIGNATURE TABLE
ST_SET: 1
ST_WAY: 256
ST_TAG_BIT: 16
ST_TAG_MASK: ffff

Initialize PATTERN TABLE
PT_SET: 512
PT_WAY: 4
SIG_DELTA_BIT: 7
C_SIG_BIT: 4
C_DELTA_BIT: 4

Initialize PREFETCH FILTER
FILTER_SET: 1024

*** ChampSim Multicore Out-of-Order Simulator ***

Warmup Instructions: 50000000
Simulation Instructions: 50000000
Number of CPUs: 1
LLC sets: 2048
LLC ways: 16
Off-chip DRAM Size: 4096 MB Channels: 1 Width: 64-bit Data Rate: 3200 MT/s

CPU 0 runs /home/ykhodke/ChampSim/dpc3_traces/server_031.champsimtrace.xz
CPU 0 Temporal Ancestry L1I prefetcher
CPU 0 L1D next line prefetcher
Heartbeat CPU 0 instructions: 10000000 cycles: 3552464 heartbeat IPC: 2.81495 cumulative IPC: 2.81495 (Simulation time: 0 hr 1 min 17 sec) 
Heartbeat CPU 0 instructions: 20000002 cycles: 7103769 heartbeat IPC: 2.81587 cumulative IPC: 2.81541 (Simulation time: 0 hr 2 min 36 sec) 
Heartbeat CPU 0 instructions: 30000002 cycles: 10655000 heartbeat IPC: 2.81592 cumulative IPC: 2.81558 (Simulation time: 0 hr 3 min 51 sec) 
Heartbeat CPU 0 instructions: 40000003 cycles: 14201749 heartbeat IPC: 2.81948 cumulative IPC: 2.81655 (Simulation time: 0 hr 5 min 7 sec) 
Heartbeat CPU 0 instructions: 50000001 cycles: 17752379 heartbeat IPC: 2.8164 cumulative IPC: 2.81652 (Simulation time: 0 hr 6 min 22 sec) 

Warmup complete CPU 0 instructions: 50000001 cycles: 17752379 (Simulation time: 0 hr 6 min 22 sec) 

Heartbeat CPU 0 instructions: 60000001 cycles: 25644847 heartbeat IPC: 1.26703 cumulative IPC: 1.26703 (Simulation time: 0 hr 7 min 33 sec) 
Heartbeat CPU 0 instructions: 70000002 cycles: 33540272 heartbeat IPC: 1.26656 cumulative IPC: 1.26679 (Simulation time: 0 hr 8 min 49 sec) 
*** Reached end of trace for Core: 0 Repeating trace: /home/ykhodke/ChampSim/dpc3_traces/server_031.champsimtrace.xz
Heartbeat CPU 0 instructions: 80000000 cycles: 41307677 heartbeat IPC: 1.28743 cumulative IPC: 1.2736 (Simulation time: 0 hr 10 min 7 sec) 
Heartbeat CPU 0 instructions: 90000001 cycles: 49054882 heartbeat IPC: 1.29079 cumulative IPC: 1.27785 (Simulation time: 0 hr 11 min 26 sec) 
Heartbeat CPU 0 instructions: 100000000 cycles: 56762977 heartbeat IPC: 1.29734 cumulative IPC: 1.2817 (Simulation time: 0 hr 12 min 45 sec) 
Finished CPU 0 instructions: 50000000 cycles: 39010600 cumulative IPC: 1.2817 (Simulation time: 0 hr 12 min 45 sec) 

ChampSim completed all CPUs

Region of Interest Statistics

CPU 0 cumulative IPC: 1.2817 instructions: 50000000 cycles: 39010600
L1D TOTAL     ACCESS:   19640700  HIT:   17736646  MISS:    1904054
L1D LOAD      ACCESS:    6834752  HIT:    5960382  MISS:     874370
L1D RFO       ACCESS:    6316211  HIT:    6024435  MISS:     291776
L1D PREFETCH  ACCESS:    6489737  HIT:    5751829  MISS:     737908
L1D WRITEBACK ACCESS:          0  HIT:          0  MISS:          0
L1D PREFETCH  REQUESTED:    6900858  ISSUED:    6790301  USEFUL:     172908  USELESS:     565001
L1D AVERAGE MISS LATENCY: 25.2355 cycles
L1I TOTAL     ACCESS:   24439946  HIT:   11758129  MISS:   12681817
L1I LOAD      ACCESS:    9967771  HIT:    9617101  MISS:     350670
L1I RFO       ACCESS:          0  HIT:          0  MISS:          0
L1I PREFETCH  ACCESS:   14472175  HIT:    2141028  MISS:   12331147
L1I WRITEBACK ACCESS:          0  HIT:          0  MISS:          0
L1I PREFETCH  REQUESTED:   32808797  ISSUED:   30405855  USEFUL:    3276345  USELESS:    9054717
L1I AVERAGE MISS LATENCY: 15.4589 cycles
L2C TOTAL     ACCESS:   17713440  HIT:   16795859  MISS:     917581
L2C LOAD      ACCESS:    1007559  HIT:     804786  MISS:     202773
L2C RFO       ACCESS:     289685  HIT:     211559  MISS:      78126
L2C PREFETCH  ACCESS:   15799414  HIT:   15176522  MISS:     622892
L2C WRITEBACK ACCESS:     616782  HIT:     602992  MISS:      13790
L2C PREFETCH  REQUESTED:    3745007  ISSUED:    3740273  USEFUL:      22362  USELESS:     599929
L2C AVERAGE MISS LATENCY: 38.1529 cycles
LLC TOTAL     ACCESS:    1717446  HIT:    1650838  MISS:      66608
LLC LOAD      ACCESS:     202749  HIT:     184386  MISS:      18363
LLC RFO       ACCESS:      78127  HIT:      73974  MISS:       4153
LLC PREFETCH  ACCESS:    1281851  HIT:    1238094  MISS:      43757
LLC WRITEBACK ACCESS:     154719  HIT:     154384  MISS:        335
LLC PREFETCH  REQUESTED:          0  ISSUED:          0  USEFUL:       1777  USELESS:      42158
LLC AVERAGE MISS LATENCY: 155.857 cycles
Major fault: 0 Minor fault: 6049
CPU 0 L1D next line prefetcher final stats

DRAM Statistics
 CHANNEL 0
 RQ ROW_BUFFER_HIT:      18346  ROW_BUFFER_MISS:      47919
 DBUS_CONGESTED:      23979
 WQ ROW_BUFFER_HIT:        646  ROW_BUFFER_MISS:       4895  FULL:          0

 AVG_CONGESTED_CYCLE: 4

CPU 0 Branch Prediction Accuracy: 99.6894% MPKI: 0.58048 Average ROB Occupancy at Mispredict: 140.649

Branch types
NOT_BRANCH: 40655718 81.3114%
BRANCH_DIRECT_JUMP: 546484 1.09297%
BRANCH_INDIRECT: 172434 0.344868%
BRANCH_CONDITIONAL: 6207599 12.4152%
BRANCH_DIRECT_CALL: 1018499 2.037%
BRANCH_INDIRECT_CALL: 190374 0.380748%
BRANCH_RETURN: 1208858 2.41772%
BRANCH_OTHER: 0 0%

