Initialize SIGNATURE TABLE
ST_SET: 1
ST_WAY: 256
ST_TAG_BIT: 16
ST_TAG_MASK: ffff

Initialize PATTERN TABLE
PT_SET: 512
PT_WAY: 4
SIG_DELTA_BIT: 7
C_SIG_BIT: 4
C_DELTA_BIT: 4

Initialize PREFETCH FILTER
FILTER_SET: 1024

*** ChampSim Multicore Out-of-Order Simulator ***

Warmup Instructions: 50000000
Simulation Instructions: 50000000
Number of CPUs: 1
LLC sets: 2048
LLC ways: 16
Off-chip DRAM Size: 4096 MB Channels: 1 Width: 64-bit Data Rate: 3200 MT/s

CPU 0 runs /home/ykhodke/ChampSim/dpc3_traces/server_033.champsimtrace.xz
CPU 0 L1I next line prefetcher
CPU 0 L1D next line prefetcher
Heartbeat CPU 0 instructions: 10000001 cycles: 3340395 heartbeat IPC: 2.99366 cumulative IPC: 2.99366 (Simulation time: 0 hr 0 min 14 sec) 
Heartbeat CPU 0 instructions: 20000002 cycles: 6679328 heartbeat IPC: 2.99497 cumulative IPC: 2.99431 (Simulation time: 0 hr 0 min 29 sec) 
Heartbeat CPU 0 instructions: 30000001 cycles: 10008120 heartbeat IPC: 3.00409 cumulative IPC: 2.99757 (Simulation time: 0 hr 0 min 44 sec) 
Heartbeat CPU 0 instructions: 40000000 cycles: 13345399 heartbeat IPC: 2.99645 cumulative IPC: 2.99729 (Simulation time: 0 hr 0 min 58 sec) 
Heartbeat CPU 0 instructions: 50000000 cycles: 16682121 heartbeat IPC: 2.99695 cumulative IPC: 2.99722 (Simulation time: 0 hr 1 min 13 sec) 

Warmup complete CPU 0 instructions: 50000004 cycles: 16682122 (Simulation time: 0 hr 1 min 13 sec) 

Heartbeat CPU 0 instructions: 60000000 cycles: 23225457 heartbeat IPC: 1.52827 cumulative IPC: 1.52827 (Simulation time: 0 hr 1 min 29 sec) 
Heartbeat CPU 0 instructions: 70000000 cycles: 29732177 heartbeat IPC: 1.53687 cumulative IPC: 1.53256 (Simulation time: 0 hr 1 min 45 sec) 
Heartbeat CPU 0 instructions: 80000000 cycles: 37072392 heartbeat IPC: 1.36236 cumulative IPC: 1.47129 (Simulation time: 0 hr 2 min 2 sec) 
Heartbeat CPU 0 instructions: 90000003 cycles: 43760899 heartbeat IPC: 1.4951 cumulative IPC: 1.47717 (Simulation time: 0 hr 2 min 18 sec) 
Heartbeat CPU 0 instructions: 100000003 cycles: 50408627 heartbeat IPC: 1.50427 cumulative IPC: 1.48251 (Simulation time: 0 hr 2 min 34 sec) 
Finished CPU 0 instructions: 50000003 cycles: 33726506 cumulative IPC: 1.48251 (Simulation time: 0 hr 2 min 34 sec) 

ChampSim completed all CPUs

Region of Interest Statistics

CPU 0 cumulative IPC: 1.48251 instructions: 50000003 cycles: 33726506
L1D TOTAL     ACCESS:   18227658  HIT:   16745353  MISS:    1482305
L1D LOAD      ACCESS:    6138080  HIT:    5454755  MISS:     683325
L1D RFO       ACCESS:    6165479  HIT:    6016129  MISS:     149350
L1D PREFETCH  ACCESS:    5924099  HIT:    5274469  MISS:     649630
L1D WRITEBACK ACCESS:          0  HIT:          0  MISS:          0
L1D PREFETCH  REQUESTED:    6181763  ISSUED:    6061695  USEFUL:     141379  USELESS:     508258
L1D AVERAGE MISS LATENCY: 23.8849 cycles
L1I TOTAL     ACCESS:   15442458  HIT:   11154658  MISS:    4287800
L1I LOAD      ACCESS:    9687558  HIT:    9626563  MISS:      60995
L1I RFO       ACCESS:          0  HIT:          0  MISS:          0
L1I PREFETCH  ACCESS:    5754900  HIT:    1528095  MISS:    4226805
L1I WRITEBACK ACCESS:          0  HIT:          0  MISS:          0
L1I PREFETCH  REQUESTED:    5964441  ISSUED:    5964399  USEFUL:    3360048  USELESS:     866706
L1I AVERAGE MISS LATENCY: 15.3252 cycles
L2C TOTAL     ACCESS:    7670182  HIT:    7361126  MISS:     309056
L2C LOAD      ACCESS:     691621  HIT:     570106  MISS:     121515
L2C RFO       ACCESS:     148017  HIT:     127155  MISS:      20862
L2C PREFETCH  ACCESS:    6464038  HIT:    6300626  MISS:     163412
L2C WRITEBACK ACCESS:     366506  HIT:     363239  MISS:       3267
L2C PREFETCH  REQUESTED:    7814358  ISSUED:    7792583  USEFUL:       9743  USELESS:     153410
L2C AVERAGE MISS LATENCY: 50.5879 cycles
LLC TOTAL     ACCESS:    2594615  HIT:    2520988  MISS:      73627
LLC LOAD      ACCESS:     121477  HIT:     106706  MISS:      14771
LLC RFO       ACCESS:      20862  HIT:      18188  MISS:       2674
LLC PREFETCH  ACCESS:    2346639  HIT:    2290812  MISS:      55827
LLC WRITEBACK ACCESS:     105637  HIT:     105282  MISS:        355
LLC PREFETCH  REQUESTED:          0  ISSUED:          0  USEFUL:       8258  USELESS:      44614
LLC AVERAGE MISS LATENCY: 174.025 cycles
Major fault: 0 Minor fault: 2482
I-Shadow cache 408 bytes
Touched + WorthPF tables 24576 bytes 
MMA filter 174 bytes 
FNL filter 272 bytes 
TOTAL PREFETCHER STORAGE SIZE: 98134 bytes
CPU 0 L1I next line prefetcher final stats
CPU 0 L1D next line prefetcher final stats

DRAM Statistics
 CHANNEL 0
 RQ ROW_BUFFER_HIT:      11743  ROW_BUFFER_MISS:      61520
 DBUS_CONGESTED:      32377
 WQ ROW_BUFFER_HIT:       4275  ROW_BUFFER_MISS:      19310  FULL:          0

 AVG_CONGESTED_CYCLE: 5

CPU 0 Branch Prediction Accuracy: 99.9029% MPKI: 0.19006 Average ROB Occupancy at Mispredict: 246.504

Branch types
NOT_BRANCH: 40217117 80.4342%
BRANCH_DIRECT_JUMP: 774599 1.5492%
BRANCH_INDIRECT: 108806 0.217612%
BRANCH_CONDITIONAL: 6379333 12.7587%
BRANCH_DIRECT_CALL: 1048809 2.09762%
BRANCH_INDIRECT_CALL: 211109 0.422218%
BRANCH_RETURN: 1259925 2.51985%
BRANCH_OTHER: 0 0%

