Initialize SIGNATURE TABLE
ST_SET: 1
ST_WAY: 256
ST_TAG_BIT: 16
ST_TAG_MASK: ffff

Initialize PATTERN TABLE
PT_SET: 512
PT_WAY: 4
SIG_DELTA_BIT: 7
C_SIG_BIT: 4
C_DELTA_BIT: 4

Initialize PREFETCH FILTER
FILTER_SET: 1024

*** ChampSim Multicore Out-of-Order Simulator ***

Warmup Instructions: 50000000
Simulation Instructions: 50000000
Number of CPUs: 1
LLC sets: 2048
LLC ways: 16
Off-chip DRAM Size: 4096 MB Channels: 1 Width: 64-bit Data Rate: 3200 MT/s

CPU 0 runs /home/ykhodke/ChampSim/dpc3_traces/server_029.champsimtrace.xz
CPU 0 L1I next line prefetcher
CPU 0 L1D next line prefetcher
Heartbeat CPU 0 instructions: 10000001 cycles: 3489735 heartbeat IPC: 2.86555 cumulative IPC: 2.86555 (Simulation time: 0 hr 0 min 15 sec) 
Heartbeat CPU 0 instructions: 20000002 cycles: 6979789 heartbeat IPC: 2.86529 cumulative IPC: 2.86542 (Simulation time: 0 hr 0 min 30 sec) 
Heartbeat CPU 0 instructions: 30000003 cycles: 10471311 heartbeat IPC: 2.86408 cumulative IPC: 2.86497 (Simulation time: 0 hr 0 min 45 sec) 
Heartbeat CPU 0 instructions: 40000000 cycles: 13969074 heartbeat IPC: 2.85897 cumulative IPC: 2.86347 (Simulation time: 0 hr 1 min 1 sec) 
Heartbeat CPU 0 instructions: 50000000 cycles: 17466055 heartbeat IPC: 2.85961 cumulative IPC: 2.8627 (Simulation time: 0 hr 1 min 16 sec) 

Warmup complete CPU 0 instructions: 50000004 cycles: 17466056 (Simulation time: 0 hr 1 min 16 sec) 

Heartbeat CPU 0 instructions: 60000000 cycles: 25008015 heartbeat IPC: 1.32592 cumulative IPC: 1.32591 (Simulation time: 0 hr 1 min 32 sec) 
Heartbeat CPU 0 instructions: 70000003 cycles: 32689592 heartbeat IPC: 1.30182 cumulative IPC: 1.31376 (Simulation time: 0 hr 1 min 49 sec) 
Heartbeat CPU 0 instructions: 80000002 cycles: 40208523 heartbeat IPC: 1.32998 cumulative IPC: 1.31912 (Simulation time: 0 hr 2 min 5 sec) 
*** Reached end of trace for Core: 0 Repeating trace: /home/ykhodke/ChampSim/dpc3_traces/server_029.champsimtrace.xz
Heartbeat CPU 0 instructions: 90000000 cycles: 47650549 heartbeat IPC: 1.34372 cumulative IPC: 1.32518 (Simulation time: 0 hr 2 min 22 sec) 
Heartbeat CPU 0 instructions: 100000003 cycles: 55077443 heartbeat IPC: 1.34646 cumulative IPC: 1.32938 (Simulation time: 0 hr 2 min 38 sec) 
Finished CPU 0 instructions: 50000003 cycles: 37611388 cumulative IPC: 1.32938 (Simulation time: 0 hr 2 min 38 sec) 

ChampSim completed all CPUs

Region of Interest Statistics

CPU 0 cumulative IPC: 1.32938 instructions: 50000003 cycles: 37611388
L1D TOTAL     ACCESS:   19046823  HIT:   16950459  MISS:    2096364
L1D LOAD      ACCESS:    6727993  HIT:    5661474  MISS:    1066519
L1D RFO       ACCESS:    6108867  HIT:    5823307  MISS:     285560
L1D PREFETCH  ACCESS:    6209963  HIT:    5465678  MISS:     744285
L1D WRITEBACK ACCESS:          0  HIT:          0  MISS:          0
L1D PREFETCH  REQUESTED:    6789665  ISSUED:    6682050  USEFUL:     174305  USELESS:     569970
L1D AVERAGE MISS LATENCY: 21.7319 cycles
L1I TOTAL     ACCESS:   15186168  HIT:   11267688  MISS:    3918480
L1I LOAD      ACCESS:    9802728  HIT:    9712849  MISS:      89879
L1I RFO       ACCESS:          0  HIT:          0  MISS:          0
L1I PREFETCH  ACCESS:    5383440  HIT:    1554839  MISS:    3828601
L1I WRITEBACK ACCESS:          0  HIT:          0  MISS:          0
L1I PREFETCH  REQUESTED:    5625239  ISSUED:    5625222  USEFUL:    2927956  USELESS:     900705
L1I AVERAGE MISS LATENCY: 18.0668 cycles
L2C TOTAL     ACCESS:    8260065  HIT:    7479110  MISS:     780955
L2C LOAD      ACCESS:     935730  HIT:     786311  MISS:     149419
L2C RFO       ACCESS:     283538  HIT:     229223  MISS:      54315
L2C PREFETCH  ACCESS:    6430262  HIT:    5854944  MISS:     575318
L2C WRITEBACK ACCESS:     610535  HIT:     608632  MISS:       1903
L2C PREFETCH  REQUESTED:    8155416  ISSUED:    8130032  USEFUL:      12732  USELESS:     561983
L2C AVERAGE MISS LATENCY: 41.9113 cycles
LLC TOTAL     ACCESS:    3000921  HIT:    2916624  MISS:      84297
LLC LOAD      ACCESS:     149336  HIT:     132119  MISS:      17217
LLC RFO       ACCESS:      54312  HIT:      50635  MISS:       3677
LLC PREFETCH  ACCESS:    2685117  HIT:    2622311  MISS:      62806
LLC WRITEBACK ACCESS:     112156  HIT:     111559  MISS:        597
LLC PREFETCH  REQUESTED:          0  ISSUED:          0  USEFUL:       2775  USELESS:      59808
LLC AVERAGE MISS LATENCY: 161.302 cycles
Major fault: 0 Minor fault: 5919
I-Shadow cache 408 bytes
Touched + WorthPF tables 24576 bytes 
MMA filter 174 bytes 
FNL filter 272 bytes 
TOTAL PREFETCHER STORAGE SIZE: 98134 bytes
CPU 0 L1I next line prefetcher final stats
CPU 0 L1D next line prefetcher final stats

DRAM Statistics
 CHANNEL 0
 RQ ROW_BUFFER_HIT:      23080  ROW_BUFFER_MISS:      60610
 DBUS_CONGESTED:      35846
 WQ ROW_BUFFER_HIT:        576  ROW_BUFFER_MISS:       4173  FULL:          0

 AVG_CONGESTED_CYCLE: 5

CPU 0 Branch Prediction Accuracy: 99.7245% MPKI: 0.51862 Average ROB Occupancy at Mispredict: 147.148

Branch types
NOT_BRANCH: 40586630 81.1733%
BRANCH_DIRECT_JUMP: 525211 1.05042%
BRANCH_INDIRECT: 166359 0.332718%
BRANCH_CONDITIONAL: 6373094 12.7462%
BRANCH_DIRECT_CALL: 989263 1.97853%
BRANCH_INDIRECT_CALL: 184984 0.369968%
BRANCH_RETURN: 1174250 2.3485%
BRANCH_OTHER: 0 0%

