Initialize SIGNATURE TABLE
ST_SET: 1
ST_WAY: 256
ST_TAG_BIT: 16
ST_TAG_MASK: ffff

Initialize PATTERN TABLE
PT_SET: 512
PT_WAY: 4
SIG_DELTA_BIT: 7
C_SIG_BIT: 4
C_DELTA_BIT: 4

Initialize PREFETCH FILTER
FILTER_SET: 1024

*** ChampSim Multicore Out-of-Order Simulator ***

Warmup Instructions: 50000000
Simulation Instructions: 50000000
Number of CPUs: 1
LLC sets: 2048
LLC ways: 16
Off-chip DRAM Size: 4096 MB Channels: 1 Width: 64-bit Data Rate: 3200 MT/s

CPU 0 runs /home/ykhodke/ChampSim/dpc3_traces/server_010.champsimtrace.xz
CPU 0 L1I next line prefetcher
CPU 0 L1D next line prefetcher
Heartbeat CPU 0 instructions: 10000000 cycles: 3194092 heartbeat IPC: 3.13078 cumulative IPC: 3.13078 (Simulation time: 0 hr 0 min 14 sec) 
Heartbeat CPU 0 instructions: 20000002 cycles: 6384366 heartbeat IPC: 3.13453 cumulative IPC: 3.13265 (Simulation time: 0 hr 0 min 27 sec) 
Heartbeat CPU 0 instructions: 30000001 cycles: 9577770 heartbeat IPC: 3.13145 cumulative IPC: 3.13225 (Simulation time: 0 hr 0 min 41 sec) 
Heartbeat CPU 0 instructions: 40000000 cycles: 12767722 heartbeat IPC: 3.13484 cumulative IPC: 3.1329 (Simulation time: 0 hr 0 min 54 sec) 
Heartbeat CPU 0 instructions: 50000003 cycles: 15963027 heartbeat IPC: 3.12959 cumulative IPC: 3.13224 (Simulation time: 0 hr 1 min 8 sec) 

Warmup complete CPU 0 instructions: 50000003 cycles: 15963027 (Simulation time: 0 hr 1 min 8 sec) 

Heartbeat CPU 0 instructions: 60000001 cycles: 23125274 heartbeat IPC: 1.39621 cumulative IPC: 1.39621 (Simulation time: 0 hr 1 min 21 sec) 
Heartbeat CPU 0 instructions: 70000000 cycles: 30307356 heartbeat IPC: 1.39235 cumulative IPC: 1.39428 (Simulation time: 0 hr 1 min 35 sec) 
Heartbeat CPU 0 instructions: 80000003 cycles: 37544256 heartbeat IPC: 1.38181 cumulative IPC: 1.3901 (Simulation time: 0 hr 1 min 48 sec) 
Heartbeat CPU 0 instructions: 90000002 cycles: 44561235 heartbeat IPC: 1.42511 cumulative IPC: 1.39869 (Simulation time: 0 hr 2 min 2 sec) 
Heartbeat CPU 0 instructions: 100000003 cycles: 65164184 heartbeat IPC: 0.485367 cumulative IPC: 1.01624 (Simulation time: 0 hr 2 min 23 sec) 
Finished CPU 0 instructions: 50000000 cycles: 49201157 cumulative IPC: 1.01624 (Simulation time: 0 hr 2 min 23 sec) 

ChampSim completed all CPUs

Region of Interest Statistics

CPU 0 cumulative IPC: 1.01624 instructions: 50000000 cycles: 49201157
L1D TOTAL     ACCESS:   19883785  HIT:   16658613  MISS:    3225172
L1D LOAD      ACCESS:    7697969  HIT:    6104085  MISS:    1593884
L1D RFO       ACCESS:    4711580  HIT:    4617274  MISS:      94306
L1D PREFETCH  ACCESS:    7474236  HIT:    5937254  MISS:    1536982
L1D WRITEBACK ACCESS:          0  HIT:          0  MISS:          0
L1D PREFETCH  REQUESTED:    7730801  ISSUED:    7633824  USEFUL:     116427  USELESS:    1420527
L1D AVERAGE MISS LATENCY: 22.6785 cycles
L1I TOTAL     ACCESS:   12616726  HIT:   10870282  MISS:    1746444
L1I LOAD      ACCESS:    9950889  HIT:    9834128  MISS:     116761
L1I RFO       ACCESS:          0  HIT:          0  MISS:          0
L1I PREFETCH  ACCESS:    2665837  HIT:    1036154  MISS:    1629683
L1I WRITEBACK ACCESS:          0  HIT:          0  MISS:          0
L1I PREFETCH  REQUESTED:    2821545  ISSUED:    2821161  USEFUL:    1137305  USELESS:     492405
L1I AVERAGE MISS LATENCY: 29.2 cycles
L2C TOTAL     ACCESS:    6223053  HIT:    5056619  MISS:    1166434
L2C LOAD      ACCESS:    1598562  HIT:    1370737  MISS:     227825
L2C RFO       ACCESS:      93313  HIT:      49108  MISS:      44205
L2C PREFETCH  ACCESS:    4265817  HIT:    3372704  MISS:     893113
L2C WRITEBACK ACCESS:     265361  HIT:     264070  MISS:       1291
L2C PREFETCH  REQUESTED:    5522484  ISSUED:    5520681  USEFUL:      22370  USELESS:     871942
L2C AVERAGE MISS LATENCY: 45.8069 cycles
LLC TOTAL     ACCESS:    2403578  HIT:    2285568  MISS:     118010
LLC LOAD      ACCESS:     227726  HIT:     211844  MISS:      15882
LLC RFO       ACCESS:      44203  HIT:      35746  MISS:       8457
LLC PREFETCH  ACCESS:    1980950  HIT:    1887473  MISS:      93477
LLC WRITEBACK ACCESS:     150699  HIT:     150505  MISS:        194
LLC PREFETCH  REQUESTED:          0  ISSUED:          0  USEFUL:       8700  USELESS:      85204
LLC AVERAGE MISS LATENCY: 175.22 cycles
Major fault: 0 Minor fault: 5597
I-Shadow cache 408 bytes
Touched + WorthPF tables 24576 bytes 
MMA filter 174 bytes 
FNL filter 272 bytes 
TOTAL PREFETCHER STORAGE SIZE: 98134 bytes
CPU 0 L1I next line prefetcher final stats
CPU 0 L1D next line prefetcher final stats

DRAM Statistics
 CHANNEL 0
 RQ ROW_BUFFER_HIT:      18613  ROW_BUFFER_MISS:      99194
 DBUS_CONGESTED:      54630
 WQ ROW_BUFFER_HIT:       9983  ROW_BUFFER_MISS:      43121  FULL:          0

 AVG_CONGESTED_CYCLE: 5

CPU 0 Branch Prediction Accuracy: 99.5528% MPKI: 0.89798 Average ROB Occupancy at Mispredict: 129.139

Branch types
NOT_BRANCH: 39958788 79.9176%
BRANCH_DIRECT_JUMP: 449946 0.899892%
BRANCH_INDIRECT: 140210 0.28042%
BRANCH_CONDITIONAL: 7679677 15.3594%
BRANCH_DIRECT_CALL: 701578 1.40316%
BRANCH_INDIRECT_CALL: 168971 0.337942%
BRANCH_RETURN: 900560 1.80112%
BRANCH_OTHER: 0 0%

