Initialize SIGNATURE TABLE
ST_SET: 1
ST_WAY: 256
ST_TAG_BIT: 16
ST_TAG_MASK: ffff

Initialize PATTERN TABLE
PT_SET: 512
PT_WAY: 4
SIG_DELTA_BIT: 7
C_SIG_BIT: 4
C_DELTA_BIT: 4

Initialize PREFETCH FILTER
FILTER_SET: 1024

*** ChampSim Multicore Out-of-Order Simulator ***

Warmup Instructions: 50000000
Simulation Instructions: 50000000
Number of CPUs: 1
LLC sets: 2048
LLC ways: 16
Off-chip DRAM Size: 4096 MB Channels: 1 Width: 64-bit Data Rate: 3200 MT/s

CPU 0 runs /home/ykhodke/ChampSim/dpc3_traces/server_025.champsimtrace.xz
CPU 0 Temporal Ancestry L1I prefetcher
CPU 0 L1D next line prefetcher
Heartbeat CPU 0 instructions: 10000003 cycles: 3563345 heartbeat IPC: 2.80635 cumulative IPC: 2.80635 (Simulation time: 0 hr 1 min 23 sec) 
Heartbeat CPU 0 instructions: 20000000 cycles: 7131043 heartbeat IPC: 2.80293 cumulative IPC: 2.80464 (Simulation time: 0 hr 2 min 47 sec) 
Heartbeat CPU 0 instructions: 30000001 cycles: 10690984 heartbeat IPC: 2.80904 cumulative IPC: 2.8061 (Simulation time: 0 hr 4 min 11 sec) 
Heartbeat CPU 0 instructions: 40000003 cycles: 14258952 heartbeat IPC: 2.80272 cumulative IPC: 2.80526 (Simulation time: 0 hr 5 min 38 sec) 
Heartbeat CPU 0 instructions: 50000001 cycles: 17826368 heartbeat IPC: 2.80315 cumulative IPC: 2.80483 (Simulation time: 0 hr 7 min 7 sec) 

Warmup complete CPU 0 instructions: 50000001 cycles: 17826368 (Simulation time: 0 hr 7 min 7 sec) 

Heartbeat CPU 0 instructions: 60000002 cycles: 25322101 heartbeat IPC: 1.33409 cumulative IPC: 1.33409 (Simulation time: 0 hr 8 min 26 sec) 
Heartbeat CPU 0 instructions: 70000000 cycles: 32882671 heartbeat IPC: 1.32265 cumulative IPC: 1.32835 (Simulation time: 0 hr 9 min 45 sec) 
Heartbeat CPU 0 instructions: 80000002 cycles: 40312497 heartbeat IPC: 1.34593 cumulative IPC: 1.33416 (Simulation time: 0 hr 11 min 2 sec) 
Heartbeat CPU 0 instructions: 90000001 cycles: 47263295 heartbeat IPC: 1.43868 cumulative IPC: 1.35884 (Simulation time: 0 hr 12 min 21 sec) 
Heartbeat CPU 0 instructions: 100000003 cycles: 53784287 heartbeat IPC: 1.53351 cumulative IPC: 1.39051 (Simulation time: 0 hr 13 min 39 sec) 
Finished CPU 0 instructions: 50000002 cycles: 35957919 cumulative IPC: 1.39051 (Simulation time: 0 hr 13 min 39 sec) 

ChampSim completed all CPUs

Region of Interest Statistics

CPU 0 cumulative IPC: 1.39051 instructions: 50000002 cycles: 35957919
L1D TOTAL     ACCESS:   20260935  HIT:   18835369  MISS:    1425566
L1D LOAD      ACCESS:    7102087  HIT:    6480496  MISS:     621591
L1D RFO       ACCESS:    6374083  HIT:    6125660  MISS:     248423
L1D PREFETCH  ACCESS:    6784765  HIT:    6229213  MISS:     555552
L1D WRITEBACK ACCESS:          0  HIT:          0  MISS:          0
L1D PREFETCH  REQUESTED:    7145703  ISSUED:    6973428  USEFUL:     128326  USELESS:     427218
L1D AVERAGE MISS LATENCY: 27.6006 cycles
L1I TOTAL     ACCESS:   22802108  HIT:   11081413  MISS:   11720695
L1I LOAD      ACCESS:    9780880  HIT:    9310297  MISS:     470583
L1I RFO       ACCESS:          0  HIT:          0  MISS:          0
L1I PREFETCH  ACCESS:   13021228  HIT:    1771116  MISS:   11250112
L1I WRITEBACK ACCESS:          0  HIT:          0  MISS:          0
L1I PREFETCH  REQUESTED:   28842074  ISSUED:   26396741  USEFUL:    2598997  USELESS:    8651074
L1I AVERAGE MISS LATENCY: 15.7548 cycles
L2C TOTAL     ACCESS:   15614248  HIT:   14450897  MISS:    1163351
L2C LOAD      ACCESS:     871594  HIT:     646131  MISS:     225463
L2C RFO       ACCESS:     246775  HIT:     135310  MISS:     111465
L2C PREFETCH  ACCESS:   13999153  HIT:   13198360  MISS:     800793
L2C WRITEBACK ACCESS:     496726  HIT:     471096  MISS:      25630
L2C PREFETCH  REQUESTED:    2961117  ISSUED:    2959860  USEFUL:      42339  USELESS:     757454
L2C AVERAGE MISS LATENCY: 33.0009 cycles
LLC TOTAL     ACCESS:    1931332  HIT:    1902876  MISS:      28456
LLC LOAD      ACCESS:     225399  HIT:     222099  MISS:       3300
LLC RFO       ACCESS:     111342  HIT:     100358  MISS:      10984
LLC PREFETCH  ACCESS:    1381628  HIT:    1367542  MISS:      14086
LLC WRITEBACK ACCESS:     212963  HIT:     212877  MISS:         86
LLC PREFETCH  REQUESTED:          0  ISSUED:          0  USEFUL:        781  USELESS:      12158
LLC AVERAGE MISS LATENCY: 185.06 cycles
Major fault: 0 Minor fault: 2465
CPU 0 L1D next line prefetcher final stats

DRAM Statistics
 CHANNEL 0
 RQ ROW_BUFFER_HIT:       9016  ROW_BUFFER_MISS:      19352
 DBUS_CONGESTED:      17688
 WQ ROW_BUFFER_HIT:       1332  ROW_BUFFER_MISS:      11748  FULL:          0

 AVG_CONGESTED_CYCLE: 6

CPU 0 Branch Prediction Accuracy: 99.8142% MPKI: 0.34676 Average ROB Occupancy at Mispredict: 183.196

Branch types
NOT_BRANCH: 40668772 81.3375%
BRANCH_DIRECT_JUMP: 531698 1.0634%
BRANCH_INDIRECT: 199024 0.398048%
BRANCH_CONDITIONAL: 6211472 12.4229%
BRANCH_DIRECT_CALL: 1010906 2.02181%
BRANCH_INDIRECT_CALL: 183501 0.367002%
BRANCH_RETURN: 1194408 2.38882%
BRANCH_OTHER: 0 0%

