Initialize SIGNATURE TABLE
ST_SET: 1
ST_WAY: 256
ST_TAG_BIT: 16
ST_TAG_MASK: ffff

Initialize PATTERN TABLE
PT_SET: 512
PT_WAY: 4
SIG_DELTA_BIT: 7
C_SIG_BIT: 4
C_DELTA_BIT: 4

Initialize PREFETCH FILTER
FILTER_SET: 1024

*** ChampSim Multicore Out-of-Order Simulator ***

Warmup Instructions: 50000000
Simulation Instructions: 50000000
Number of CPUs: 1
LLC sets: 2048
LLC ways: 16
Off-chip DRAM Size: 4096 MB Channels: 1 Width: 64-bit Data Rate: 3200 MT/s

CPU 0 runs /home/ykhodke/ChampSim/dpc3_traces/server_009.champsimtrace.xz
CPU 0 Temporal Ancestry L1I prefetcher
CPU 0 L1D next line prefetcher
Heartbeat CPU 0 instructions: 10000003 cycles: 3239654 heartbeat IPC: 3.08675 cumulative IPC: 3.08675 (Simulation time: 0 hr 1 min 40 sec) 
Heartbeat CPU 0 instructions: 20000001 cycles: 6478537 heartbeat IPC: 3.08748 cumulative IPC: 3.08712 (Simulation time: 0 hr 3 min 25 sec) 
Heartbeat CPU 0 instructions: 30000002 cycles: 9726221 heartbeat IPC: 3.07912 cumulative IPC: 3.08445 (Simulation time: 0 hr 5 min 10 sec) 
Heartbeat CPU 0 instructions: 40000003 cycles: 12973997 heartbeat IPC: 3.07903 cumulative IPC: 3.08309 (Simulation time: 0 hr 6 min 57 sec) 
Heartbeat CPU 0 instructions: 50000000 cycles: 16272729 heartbeat IPC: 3.03147 cumulative IPC: 3.07263 (Simulation time: 0 hr 8 min 44 sec) 

Warmup complete CPU 0 instructions: 50000004 cycles: 16272730 (Simulation time: 0 hr 8 min 44 sec) 

Heartbeat CPU 0 instructions: 60000002 cycles: 32492765 heartbeat IPC: 0.616522 cumulative IPC: 0.616521 (Simulation time: 0 hr 10 min 50 sec) 
Heartbeat CPU 0 instructions: 70000003 cycles: 53748733 heartbeat IPC: 0.470456 cumulative IPC: 0.533675 (Simulation time: 0 hr 13 min 22 sec) 
Heartbeat CPU 0 instructions: 80000000 cycles: 61685483 heartbeat IPC: 1.25996 cumulative IPC: 0.660607 (Simulation time: 0 hr 14 min 54 sec) 
Heartbeat CPU 0 instructions: 90000001 cycles: 69786073 heartbeat IPC: 1.23448 cumulative IPC: 0.747477 (Simulation time: 0 hr 16 min 27 sec) 
Heartbeat CPU 0 instructions: 100000001 cycles: 77735428 heartbeat IPC: 1.25796 cumulative IPC: 0.813501 (Simulation time: 0 hr 18 min 0 sec) 
Finished CPU 0 instructions: 50000000 cycles: 61462699 cumulative IPC: 0.813502 (Simulation time: 0 hr 18 min 0 sec) 

ChampSim completed all CPUs

Region of Interest Statistics

CPU 0 cumulative IPC: 0.813502 instructions: 50000000 cycles: 61462699
L1D TOTAL     ACCESS:   21926438  HIT:   17346691  MISS:    4579747
L1D LOAD      ACCESS:    8776907  HIT:    6496946  MISS:    2279961
L1D RFO       ACCESS:    4590319  HIT:    4485679  MISS:     104640
L1D PREFETCH  ACCESS:    8559212  HIT:    6364066  MISS:    2195146
L1D WRITEBACK ACCESS:          0  HIT:          0  MISS:          0
L1D PREFETCH  REQUESTED:    8812336  ISSUED:    8713175  USEFUL:     106615  USELESS:    2088529
L1D AVERAGE MISS LATENCY: 21.25 cycles
L1I TOTAL     ACCESS:   18420354  HIT:   11544347  MISS:    6876007
L1I LOAD      ACCESS:   10969707  HIT:   10628403  MISS:     341304
L1I RFO       ACCESS:          0  HIT:          0  MISS:          0
L1I PREFETCH  ACCESS:    7450647  HIT:     915944  MISS:    6534703
L1I WRITEBACK ACCESS:          0  HIT:          0  MISS:          0
L1I PREFETCH  REQUESTED:   15533801  ISSUED:   15014707  USEFUL:    1295426  USELESS:    5239297
L1I AVERAGE MISS LATENCY: 19.289 cycles
L2C TOTAL     ACCESS:   14201380  HIT:   12737305  MISS:    1464075
L2C LOAD      ACCESS:    2474521  HIT:    2147798  MISS:     326723
L2C RFO       ACCESS:     103566  HIT:      56182  MISS:      47384
L2C PREFETCH  ACCESS:   11366436  HIT:   10291761  MISS:    1074675
L2C WRITEBACK ACCESS:     256857  HIT:     241564  MISS:      15293
L2C PREFETCH  REQUESTED:    7496104  ISSUED:    7494590  USEFUL:      53983  USELESS:    1019161
L2C AVERAGE MISS LATENCY: 40.5564 cycles
LLC TOTAL     ACCESS:    2931909  HIT:    2791694  MISS:     140215
LLC LOAD      ACCESS:     326433  HIT:     304370  MISS:      22063
LLC RFO       ACCESS:      47377  HIT:      38051  MISS:       9326
LLC PREFETCH  ACCESS:    2392165  HIT:    2283373  MISS:     108792
LLC WRITEBACK ACCESS:     165934  HIT:     165900  MISS:         34
LLC PREFETCH  REQUESTED:          0  ISSUED:          0  USEFUL:      10169  USELESS:      95784
LLC AVERAGE MISS LATENCY: 188.085 cycles
Major fault: 0 Minor fault: 6357
CPU 0 L1D next line prefetcher final stats

DRAM Statistics
 CHANNEL 0
 RQ ROW_BUFFER_HIT:      22881  ROW_BUFFER_MISS:     117293
 DBUS_CONGESTED:      49588
 WQ ROW_BUFFER_HIT:       9116  ROW_BUFFER_MISS:      38264  FULL:          0

 AVG_CONGESTED_CYCLE: 5

CPU 0 Branch Prediction Accuracy: 99.4713% MPKI: 1.11484 Average ROB Occupancy at Mispredict: 101.991

Branch types
NOT_BRANCH: 39456587 78.9132%
BRANCH_DIRECT_JUMP: 445350 0.8907%
BRANCH_INDIRECT: 131150 0.2623%
BRANCH_CONDITIONAL: 8130189 16.2604%
BRANCH_DIRECT_CALL: 732485 1.46497%
BRANCH_INDIRECT_CALL: 172370 0.34474%
BRANCH_RETURN: 931558 1.86312%
BRANCH_OTHER: 0 0%

