Initialize SIGNATURE TABLE
ST_SET: 1
ST_WAY: 256
ST_TAG_BIT: 16
ST_TAG_MASK: ffff

Initialize PATTERN TABLE
PT_SET: 512
PT_WAY: 4
SIG_DELTA_BIT: 7
C_SIG_BIT: 4
C_DELTA_BIT: 4

Initialize PREFETCH FILTER
FILTER_SET: 1024

*** ChampSim Multicore Out-of-Order Simulator ***

Warmup Instructions: 50000000
Simulation Instructions: 50000000
Number of CPUs: 1
LLC sets: 2048
LLC ways: 16
Off-chip DRAM Size: 4096 MB Channels: 1 Width: 64-bit Data Rate: 3200 MT/s

CPU 0 runs /home/ykhodke/ChampSim/dpc3_traces/server_025.champsimtrace.xz
CPU 0 L1I next line prefetcher
CPU 0 L1D next line prefetcher
Heartbeat CPU 0 instructions: 10000003 cycles: 3525785 heartbeat IPC: 2.83625 cumulative IPC: 2.83625 (Simulation time: 0 hr 0 min 15 sec) 
Heartbeat CPU 0 instructions: 20000000 cycles: 7059237 heartbeat IPC: 2.83009 cumulative IPC: 2.83317 (Simulation time: 0 hr 0 min 29 sec) 
Heartbeat CPU 0 instructions: 30000001 cycles: 10584668 heartbeat IPC: 2.83653 cumulative IPC: 2.83429 (Simulation time: 0 hr 0 min 44 sec) 
Heartbeat CPU 0 instructions: 40000003 cycles: 14116359 heartbeat IPC: 2.83151 cumulative IPC: 2.83359 (Simulation time: 0 hr 0 min 59 sec) 
Heartbeat CPU 0 instructions: 50000001 cycles: 17646703 heartbeat IPC: 2.83258 cumulative IPC: 2.83339 (Simulation time: 0 hr 1 min 14 sec) 

Warmup complete CPU 0 instructions: 50000001 cycles: 17646703 (Simulation time: 0 hr 1 min 14 sec) 

Heartbeat CPU 0 instructions: 60000002 cycles: 24462111 heartbeat IPC: 1.46726 cumulative IPC: 1.46726 (Simulation time: 0 hr 1 min 30 sec) 
Heartbeat CPU 0 instructions: 70000000 cycles: 31402630 heartbeat IPC: 1.44081 cumulative IPC: 1.45392 (Simulation time: 0 hr 1 min 47 sec) 
Heartbeat CPU 0 instructions: 80000002 cycles: 38243008 heartbeat IPC: 1.46191 cumulative IPC: 1.45657 (Simulation time: 0 hr 2 min 3 sec) 
Heartbeat CPU 0 instructions: 90000001 cycles: 44756682 heartbeat IPC: 1.53523 cumulative IPC: 1.47547 (Simulation time: 0 hr 2 min 19 sec) 
Heartbeat CPU 0 instructions: 100000003 cycles: 50981969 heartbeat IPC: 1.60635 cumulative IPC: 1.49991 (Simulation time: 0 hr 2 min 34 sec) 
Finished CPU 0 instructions: 50000002 cycles: 33335266 cumulative IPC: 1.49991 (Simulation time: 0 hr 2 min 34 sec) 

ChampSim completed all CPUs

Region of Interest Statistics

CPU 0 cumulative IPC: 1.49991 instructions: 50000002 cycles: 33335266
L1D TOTAL     ACCESS:   19975026  HIT:   18549761  MISS:    1425265
L1D LOAD      ACCESS:    6955656  HIT:    6336291  MISS:     619365
L1D RFO       ACCESS:    6375261  HIT:    6127173  MISS:     248088
L1D PREFETCH  ACCESS:    6644109  HIT:    6086297  MISS:     557812
L1D WRITEBACK ACCESS:          0  HIT:          0  MISS:          0
L1D PREFETCH  REQUESTED:    6997252  ISSUED:    6823225  USEFUL:     130651  USELESS:     427155
L1D AVERAGE MISS LATENCY: 23.5708 cycles
L1I TOTAL     ACCESS:   14161462  HIT:   10746837  MISS:    3414625
L1I LOAD      ACCESS:    9501064  HIT:    9415042  MISS:      86022
L1I RFO       ACCESS:          0  HIT:          0  MISS:          0
L1I PREFETCH  ACCESS:    4660398  HIT:    1331795  MISS:    3328603
L1I WRITEBACK ACCESS:          0  HIT:          0  MISS:          0
L1I PREFETCH  REQUESTED:    4843577  ISSUED:    4843407  USEFUL:    2442871  USELESS:     885721
L1I AVERAGE MISS LATENCY: 18.8068 cycles
L2C TOTAL     ACCESS:    6451620  HIT:    5690287  MISS:     761333
L2C LOAD      ACCESS:     621321  HIT:     502340  MISS:     118981
L2C RFO       ACCESS:     246637  HIT:     166311  MISS:      80326
L2C PREFETCH  ACCESS:    5086914  HIT:    4529412  MISS:     557502
L2C WRITEBACK ACCESS:     496748  HIT:     492224  MISS:       4524
L2C PREFETCH  REQUESTED:    5992871  ISSUED:    5975114  USEFUL:      13315  USELESS:     543956
L2C AVERAGE MISS LATENCY: 38.463 cycles
LLC TOTAL     ACCESS:    2366117  HIT:    2333591  MISS:      32526
LLC LOAD      ACCESS:     118899  HIT:     115478  MISS:       3421
LLC RFO       ACCESS:      80319  HIT:      69605  MISS:      10714
LLC PREFETCH  ACCESS:    2029560  HIT:    2011406  MISS:      18154
LLC WRITEBACK ACCESS:     137339  HIT:     137102  MISS:        237
LLC PREFETCH  REQUESTED:          0  ISSUED:          0  USEFUL:       1279  USELESS:      15206
LLC AVERAGE MISS LATENCY: 177.558 cycles
Major fault: 0 Minor fault: 2458
I-Shadow cache 408 bytes
Touched + WorthPF tables 24576 bytes 
MMA filter 174 bytes 
FNL filter 272 bytes 
TOTAL PREFETCHER STORAGE SIZE: 98134 bytes
CPU 0 L1I next line prefetcher final stats
CPU 0 L1D next line prefetcher final stats

DRAM Statistics
 CHANNEL 0
 RQ ROW_BUFFER_HIT:       9977  ROW_BUFFER_MISS:      22306
 DBUS_CONGESTED:      20315
 WQ ROW_BUFFER_HIT:       1531  ROW_BUFFER_MISS:      12442  FULL:          0

 AVG_CONGESTED_CYCLE: 6

CPU 0 Branch Prediction Accuracy: 99.8142% MPKI: 0.34676 Average ROB Occupancy at Mispredict: 201.274

Branch types
NOT_BRANCH: 40668920 81.3378%
BRANCH_DIRECT_JUMP: 531701 1.0634%
BRANCH_INDIRECT: 199025 0.39805%
BRANCH_CONDITIONAL: 6211500 12.423%
BRANCH_DIRECT_CALL: 1010911 2.02182%
BRANCH_INDIRECT_CALL: 183501 0.367002%
BRANCH_RETURN: 1194416 2.38883%
BRANCH_OTHER: 0 0%

