Initialize SIGNATURE TABLE
ST_SET: 1
ST_WAY: 256
ST_TAG_BIT: 16
ST_TAG_MASK: ffff

Initialize PATTERN TABLE
PT_SET: 512
PT_WAY: 4
SIG_DELTA_BIT: 7
C_SIG_BIT: 4
C_DELTA_BIT: 4

Initialize PREFETCH FILTER
FILTER_SET: 1024

*** ChampSim Multicore Out-of-Order Simulator ***

Warmup Instructions: 50000000
Simulation Instructions: 50000000
Number of CPUs: 1
LLC sets: 2048
LLC ways: 16
Off-chip DRAM Size: 4096 MB Channels: 1 Width: 64-bit Data Rate: 3200 MT/s

CPU 0 runs /home/ykhodke/ChampSim/dpc3_traces/server_027.champsimtrace.xz
CPU 0 L1I next line prefetcher
CPU 0 L1D next line prefetcher
Heartbeat CPU 0 instructions: 10000001 cycles: 3528863 heartbeat IPC: 2.83377 cumulative IPC: 2.83377 (Simulation time: 0 hr 0 min 15 sec) 
Heartbeat CPU 0 instructions: 20000001 cycles: 7063192 heartbeat IPC: 2.82939 cumulative IPC: 2.83158 (Simulation time: 0 hr 0 min 30 sec) 
Heartbeat CPU 0 instructions: 30000002 cycles: 10591810 heartbeat IPC: 2.83397 cumulative IPC: 2.83238 (Simulation time: 0 hr 0 min 45 sec) 
Heartbeat CPU 0 instructions: 40000000 cycles: 14127241 heartbeat IPC: 2.82851 cumulative IPC: 2.83141 (Simulation time: 0 hr 1 min 0 sec) 
Heartbeat CPU 0 instructions: 50000001 cycles: 17655307 heartbeat IPC: 2.83441 cumulative IPC: 2.83201 (Simulation time: 0 hr 1 min 15 sec) 

Warmup complete CPU 0 instructions: 50000001 cycles: 17655307 (Simulation time: 0 hr 1 min 15 sec) 

Heartbeat CPU 0 instructions: 60000002 cycles: 24588342 heartbeat IPC: 1.44237 cumulative IPC: 1.44237 (Simulation time: 0 hr 1 min 32 sec) 
Heartbeat CPU 0 instructions: 70000003 cycles: 31459249 heartbeat IPC: 1.45541 cumulative IPC: 1.44886 (Simulation time: 0 hr 1 min 48 sec) 
Heartbeat CPU 0 instructions: 80000002 cycles: 38356498 heartbeat IPC: 1.44985 cumulative IPC: 1.44919 (Simulation time: 0 hr 2 min 4 sec) 
Heartbeat CPU 0 instructions: 90000001 cycles: 45322329 heartbeat IPC: 1.43558 cumulative IPC: 1.44576 (Simulation time: 0 hr 2 min 21 sec) 
Heartbeat CPU 0 instructions: 100000002 cycles: 52168475 heartbeat IPC: 1.46068 cumulative IPC: 1.44872 (Simulation time: 0 hr 2 min 37 sec) 
Finished CPU 0 instructions: 50000001 cycles: 34513168 cumulative IPC: 1.44872 (Simulation time: 0 hr 2 min 37 sec) 

ChampSim completed all CPUs

Region of Interest Statistics

CPU 0 cumulative IPC: 1.44872 instructions: 50000001 cycles: 34513168
L1D TOTAL     ACCESS:   19891489  HIT:   18289798  MISS:    1601691
L1D LOAD      ACCESS:    6945248  HIT:    6253827  MISS:     691421
L1D RFO       ACCESS:    6286931  HIT:    6001086  MISS:     285845
L1D PREFETCH  ACCESS:    6659310  HIT:    6034885  MISS:     624425
L1D WRITEBACK ACCESS:          0  HIT:          0  MISS:          0
L1D PREFETCH  REQUESTED:    6992703  ISSUED:    6865668  USEFUL:     150051  USELESS:     474385
L1D AVERAGE MISS LATENCY: 24.6847 cycles
L1I TOTAL     ACCESS:   14807694  HIT:   10883944  MISS:    3923750
L1I LOAD      ACCESS:    9482184  HIT:    9375823  MISS:     106361
L1I RFO       ACCESS:          0  HIT:          0  MISS:          0
L1I PREFETCH  ACCESS:    5325510  HIT:    1508121  MISS:    3817389
L1I WRITEBACK ACCESS:          0  HIT:          0  MISS:          0
L1I PREFETCH  REQUESTED:    5579665  ISSUED:    5577181  USEFUL:    2764737  USELESS:    1052601
L1I AVERAGE MISS LATENCY: 19.234 cycles
L2C TOTAL     ACCESS:    7389669  HIT:    6420066  MISS:     969603
L2C LOAD      ACCESS:     694447  HIT:     539449  MISS:     154998
L2C RFO       ACCESS:     283647  HIT:     188273  MISS:      95374
L2C PREFETCH  ACCESS:    5852268  HIT:    5138954  MISS:     713314
L2C WRITEBACK ACCESS:     559307  HIT:     553390  MISS:       5917
L2C PREFETCH  REQUESTED:    7012241  ISSUED:    6993895  USEFUL:      15750  USELESS:     697262
L2C AVERAGE MISS LATENCY: 38.2502 cycles
LLC TOTAL     ACCESS:    2900210  HIT:    2863669  MISS:      36541
LLC LOAD      ACCESS:     154732  HIT:     150963  MISS:       3769
LLC RFO       ACCESS:      95373  HIT:      81517  MISS:      13856
LLC PREFETCH  ACCESS:    2482360  HIT:    2463648  MISS:      18712
LLC WRITEBACK ACCESS:     167745  HIT:     167541  MISS:        204
LLC PREFETCH  REQUESTED:          0  ISSUED:          0  USEFUL:       1455  USELESS:      16157
LLC AVERAGE MISS LATENCY: 181.864 cycles
Major fault: 0 Minor fault: 2478
I-Shadow cache 408 bytes
Touched + WorthPF tables 24576 bytes 
MMA filter 174 bytes 
FNL filter 272 bytes 
TOTAL PREFETCHER STORAGE SIZE: 98134 bytes
CPU 0 L1I next line prefetcher final stats
CPU 0 L1D next line prefetcher final stats

DRAM Statistics
 CHANNEL 0
 RQ ROW_BUFFER_HIT:      11665  ROW_BUFFER_MISS:      24669
 DBUS_CONGESTED:      24502
 WQ ROW_BUFFER_HIT:       1692  ROW_BUFFER_MISS:      15061  FULL:          0

 AVG_CONGESTED_CYCLE: 6

CPU 0 Branch Prediction Accuracy: 99.8082% MPKI: 0.35064 Average ROB Occupancy at Mispredict: 191.582

Branch types
NOT_BRANCH: 40857507 81.715%
BRANCH_DIRECT_JUMP: 526635 1.05327%
BRANCH_INDIRECT: 205902 0.411804%
BRANCH_CONDITIONAL: 6184050 12.3681%
BRANCH_DIRECT_CALL: 938468 1.87694%
BRANCH_INDIRECT_CALL: 174486 0.348972%
BRANCH_RETURN: 1112959 2.22592%
BRANCH_OTHER: 0 0%

