Initialize SIGNATURE TABLE
ST_SET: 1
ST_WAY: 256
ST_TAG_BIT: 16
ST_TAG_MASK: ffff

Initialize PATTERN TABLE
PT_SET: 512
PT_WAY: 4
SIG_DELTA_BIT: 7
C_SIG_BIT: 4
C_DELTA_BIT: 4

Initialize PREFETCH FILTER
FILTER_SET: 1024

*** ChampSim Multicore Out-of-Order Simulator ***

Warmup Instructions: 50000000
Simulation Instructions: 50000000
Number of CPUs: 1
LLC sets: 2048
LLC ways: 16
Off-chip DRAM Size: 4096 MB Channels: 1 Width: 64-bit Data Rate: 3200 MT/s

CPU 0 runs /home/ykhodke/ChampSim/dpc3_traces/server_027.champsimtrace.xz
CPU 0 Temporal Ancestry L1I prefetcher
CPU 0 L1D next line prefetcher
Heartbeat CPU 0 instructions: 10000001 cycles: 3559914 heartbeat IPC: 2.80906 cumulative IPC: 2.80906 (Simulation time: 0 hr 1 min 18 sec) 
Heartbeat CPU 0 instructions: 20000001 cycles: 7124416 heartbeat IPC: 2.80544 cumulative IPC: 2.80725 (Simulation time: 0 hr 2 min 38 sec) 
Heartbeat CPU 0 instructions: 30000002 cycles: 10682905 heartbeat IPC: 2.81018 cumulative IPC: 2.80823 (Simulation time: 0 hr 3 min 59 sec) 
Heartbeat CPU 0 instructions: 40000000 cycles: 14247912 heartbeat IPC: 2.80504 cumulative IPC: 2.80743 (Simulation time: 0 hr 5 min 21 sec) 
Heartbeat CPU 0 instructions: 50000003 cycles: 17807503 heartbeat IPC: 2.80931 cumulative IPC: 2.80781 (Simulation time: 0 hr 6 min 44 sec) 

Warmup complete CPU 0 instructions: 50000003 cycles: 17807503 (Simulation time: 0 hr 6 min 44 sec) 

Heartbeat CPU 0 instructions: 60000002 cycles: 25342351 heartbeat IPC: 1.32717 cumulative IPC: 1.32717 (Simulation time: 0 hr 7 min 58 sec) 
Heartbeat CPU 0 instructions: 70000003 cycles: 32779322 heartbeat IPC: 1.34463 cumulative IPC: 1.33584 (Simulation time: 0 hr 9 min 13 sec) 
Heartbeat CPU 0 instructions: 80000002 cycles: 40201399 heartbeat IPC: 1.34733 cumulative IPC: 1.33965 (Simulation time: 0 hr 10 min 28 sec) 
Heartbeat CPU 0 instructions: 90000001 cycles: 47693274 heartbeat IPC: 1.33478 cumulative IPC: 1.33843 (Simulation time: 0 hr 11 min 47 sec) 
Heartbeat CPU 0 instructions: 100000002 cycles: 55062508 heartbeat IPC: 1.35699 cumulative IPC: 1.3421 (Simulation time: 0 hr 13 min 6 sec) 
Finished CPU 0 instructions: 50000003 cycles: 37255006 cumulative IPC: 1.3421 (Simulation time: 0 hr 13 min 6 sec) 

ChampSim completed all CPUs

Region of Interest Statistics

CPU 0 cumulative IPC: 1.3421 instructions: 50000003 cycles: 37255006
L1D TOTAL     ACCESS:   20263484  HIT:   18661501  MISS:    1601983
L1D LOAD      ACCESS:    7131439  HIT:    6437884  MISS:     693555
L1D RFO       ACCESS:    6291529  HIT:    6005469  MISS:     286060
L1D PREFETCH  ACCESS:    6840516  HIT:    6218148  MISS:     622368
L1D WRITEBACK ACCESS:          0  HIT:          0  MISS:          0
L1D PREFETCH  REQUESTED:    7182777  ISSUED:    7059891  USEFUL:     147607  USELESS:     474772
L1D AVERAGE MISS LATENCY: 27.8337 cycles
L1I TOTAL     ACCESS:   24019644  HIT:   11182827  MISS:   12836817
L1I LOAD      ACCESS:    9726763  HIT:    9181488  MISS:     545275
L1I RFO       ACCESS:          0  HIT:          0  MISS:          0
L1I PREFETCH  ACCESS:   14292881  HIT:    2001339  MISS:   12291542
L1I WRITEBACK ACCESS:          0  HIT:          0  MISS:          0
L1I PREFETCH  REQUESTED:   31936182  ISSUED:   28788576  USEFUL:    2824507  USELESS:    9466995
L1I AVERAGE MISS LATENCY: 15.7994 cycles
L2C TOTAL     ACCESS:   17114317  HIT:   15794587  MISS:    1319730
L2C LOAD      ACCESS:     982789  HIT:     735896  MISS:     246893
L2C RFO       ACCESS:     283708  HIT:     159322  MISS:     124386
L2C PREFETCH  ACCESS:   15288623  HIT:   14364125  MISS:     924498
L2C WRITEBACK ACCESS:     559197  HIT:     535244  MISS:      23953
L2C PREFETCH  REQUESTED:    3133452  ISSUED:    3132683  USEFUL:      50815  USELESS:     872793
L2C AVERAGE MISS LATENCY: 33.3214 cycles
LLC TOTAL     ACCESS:    2130159  HIT:    2098476  MISS:      31683
LLC LOAD      ACCESS:     246772  HIT:     243287  MISS:       3485
LLC RFO       ACCESS:     124372  HIT:     110253  MISS:      14119
LLC PREFETCH  ACCESS:    1527530  HIT:    1513514  MISS:      14016
LLC WRITEBACK ACCESS:     231485  HIT:     231422  MISS:         63
LLC PREFETCH  REQUESTED:          0  ISSUED:          0  USEFUL:        917  USELESS:      12351
LLC AVERAGE MISS LATENCY: 192.287 cycles
Major fault: 0 Minor fault: 2485
CPU 0 L1D next line prefetcher final stats

DRAM Statistics
 CHANNEL 0
 RQ ROW_BUFFER_HIT:      10445  ROW_BUFFER_MISS:      21173
 DBUS_CONGESTED:      21594
 WQ ROW_BUFFER_HIT:       1543  ROW_BUFFER_MISS:      14506  FULL:          0

 AVG_CONGESTED_CYCLE: 6

CPU 0 Branch Prediction Accuracy: 99.8082% MPKI: 0.35064 Average ROB Occupancy at Mispredict: 165.02

Branch types
NOT_BRANCH: 40857741 81.7155%
BRANCH_DIRECT_JUMP: 526636 1.05327%
BRANCH_INDIRECT: 205902 0.411804%
BRANCH_CONDITIONAL: 6184069 12.3681%
BRANCH_DIRECT_CALL: 938477 1.87695%
BRANCH_INDIRECT_CALL: 174486 0.348972%
BRANCH_RETURN: 1112974 2.22595%
BRANCH_OTHER: 0 0%

