Initialize SIGNATURE TABLE
ST_SET: 1
ST_WAY: 256
ST_TAG_BIT: 16
ST_TAG_MASK: ffff

Initialize PATTERN TABLE
PT_SET: 512
PT_WAY: 4
SIG_DELTA_BIT: 7
C_SIG_BIT: 4
C_DELTA_BIT: 4

Initialize PREFETCH FILTER
FILTER_SET: 1024

*** ChampSim Multicore Out-of-Order Simulator ***

Warmup Instructions: 50000000
Simulation Instructions: 50000000
Number of CPUs: 1
LLC sets: 2048
LLC ways: 16
Off-chip DRAM Size: 4096 MB Channels: 1 Width: 64-bit Data Rate: 3200 MT/s

CPU 0 runs /home/ykhodke/ChampSim/dpc3_traces/spec_gcc_003.champsimtrace.xz
CPU 0 L1I next line prefetcher
CPU 0 L1D next line prefetcher
Heartbeat CPU 0 instructions: 10000001 cycles: 3481320 heartbeat IPC: 2.87247 cumulative IPC: 2.87247 (Simulation time: 0 hr 0 min 12 sec) 
Heartbeat CPU 0 instructions: 20000000 cycles: 6947925 heartbeat IPC: 2.88467 cumulative IPC: 2.87856 (Simulation time: 0 hr 0 min 24 sec) 
Heartbeat CPU 0 instructions: 30000002 cycles: 10392055 heartbeat IPC: 2.90349 cumulative IPC: 2.88682 (Simulation time: 0 hr 0 min 35 sec) 
Heartbeat CPU 0 instructions: 40000000 cycles: 13857842 heartbeat IPC: 2.88535 cumulative IPC: 2.88645 (Simulation time: 0 hr 0 min 46 sec) 
Heartbeat CPU 0 instructions: 50000001 cycles: 17166312 heartbeat IPC: 3.02255 cumulative IPC: 2.91268 (Simulation time: 0 hr 0 min 58 sec) 

Warmup complete CPU 0 instructions: 50000001 cycles: 17166312 (Simulation time: 0 hr 0 min 58 sec) 

Heartbeat CPU 0 instructions: 60000000 cycles: 57589599 heartbeat IPC: 0.247382 cumulative IPC: 0.247382 (Simulation time: 0 hr 1 min 29 sec) 
Heartbeat CPU 0 instructions: 70000000 cycles: 100892040 heartbeat IPC: 0.230934 cumulative IPC: 0.238875 (Simulation time: 0 hr 2 min 2 sec) 
Heartbeat CPU 0 instructions: 80000003 cycles: 144995676 heartbeat IPC: 0.226739 cumulative IPC: 0.234688 (Simulation time: 0 hr 2 min 35 sec) 
Heartbeat CPU 0 instructions: 90000002 cycles: 182225593 heartbeat IPC: 0.268601 cumulative IPC: 0.242337 (Simulation time: 0 hr 3 min 4 sec) 
Heartbeat CPU 0 instructions: 100000001 cycles: 229072576 heartbeat IPC: 0.213461 cumulative IPC: 0.235953 (Simulation time: 0 hr 3 min 39 sec) 
Finished CPU 0 instructions: 50000000 cycles: 211906264 cumulative IPC: 0.235953 (Simulation time: 0 hr 3 min 39 sec) 

ChampSim completed all CPUs

Region of Interest Statistics

CPU 0 cumulative IPC: 0.235953 instructions: 50000000 cycles: 211906264
L1D TOTAL     ACCESS:   16843066  HIT:   11118793  MISS:    5724273
L1D LOAD      ACCESS:    4562879  HIT:    4180020  MISS:     382859
L1D RFO       ACCESS:    8205345  HIT:    3153755  MISS:    5051590
L1D PREFETCH  ACCESS:    4074842  HIT:    3785018  MISS:     289824
L1D WRITEBACK ACCESS:          0  HIT:          0  MISS:          0
L1D PREFETCH  REQUESTED:    4580359  ISSUED:    4520957  USEFUL:     152429  USELESS:     137575
L1D AVERAGE MISS LATENCY: 508.431 cycles
L1I TOTAL     ACCESS:   13670147  HIT:   12322523  MISS:    1347624
L1I LOAD      ACCESS:   11292882  HIT:   11186998  MISS:     105884
L1I RFO       ACCESS:          0  HIT:          0  MISS:          0
L1I PREFETCH  ACCESS:    2377265  HIT:    1135525  MISS:    1241740
L1I WRITEBACK ACCESS:          0  HIT:          0  MISS:          0
L1I PREFETCH  REQUESTED:    2541289  ISSUED:    2532535  USEFUL:     760940  USELESS:     480698
L1I AVERAGE MISS LATENCY: 53.2039 cycles
L2C TOTAL     ACCESS:   12544650  HIT:    6462174  MISS:    6082476
L2C LOAD      ACCESS:     261014  HIT:      84491  MISS:     176523
L2C RFO       ACCESS:    5049818  HIT:       6472  MISS:    5043346
L2C PREFETCH  ACCESS:    2075945  HIT:    1213669  MISS:     862276
L2C WRITEBACK ACCESS:    5157873  HIT:    5157542  MISS:        331
L2C PREFETCH  REQUESTED:    2476562  ISSUED:    2476125  USEFUL:      34360  USELESS:     824971
L2C AVERAGE MISS LATENCY: 477.048 cycles
LLC TOTAL     ACCESS:   12052568  HIT:    7278931  MISS:    4773637
LLC LOAD      ACCESS:     176498  HIT:     132938  MISS:      43560
LLC RFO       ACCESS:    5043346  HIT:     584249  MISS:    4459097
LLC PREFETCH  ACCESS:    1698784  HIT:    1427804  MISS:     270980
LLC WRITEBACK ACCESS:    5133940  HIT:    5133940  MISS:          0
LLC PREFETCH  REQUESTED:          0  ISSUED:          0  USEFUL:      12634  USELESS:     258414
LLC AVERAGE MISS LATENCY: 577.317 cycles
Major fault: 0 Minor fault: 2817
I-Shadow cache 408 bytes
Touched + WorthPF tables 24576 bytes 
MMA filter 174 bytes 
FNL filter 272 bytes 
TOTAL PREFETCHER STORAGE SIZE: 98134 bytes
CPU 0 L1I next line prefetcher final stats
CPU 0 L1D next line prefetcher final stats

DRAM Statistics
 CHANNEL 0
 RQ ROW_BUFFER_HIT:    1441134  ROW_BUFFER_MISS:    3332434
 DBUS_CONGESTED:    8295672
 WQ ROW_BUFFER_HIT:    1198748  ROW_BUFFER_MISS:    3289401  FULL:          0

 AVG_CONGESTED_CYCLE: 6

CPU 0 Branch Prediction Accuracy: 99.665% MPKI: 0.78342 Average ROB Occupancy at Mispredict: 120.198

Branch types
NOT_BRANCH: 38305856 76.6117%
BRANCH_DIRECT_JUMP: 384281 0.768562%
BRANCH_INDIRECT: 71949 0.143898%
BRANCH_CONDITIONAL: 9879825 19.7597%
BRANCH_DIRECT_CALL: 650586 1.30117%
BRANCH_INDIRECT_CALL: 28456 0.056912%
BRANCH_RETURN: 679046 1.35809%
BRANCH_OTHER: 0 0%

