Initialize SIGNATURE TABLE
ST_SET: 1
ST_WAY: 256
ST_TAG_BIT: 16
ST_TAG_MASK: ffff

Initialize PATTERN TABLE
PT_SET: 512
PT_WAY: 4
SIG_DELTA_BIT: 7
C_SIG_BIT: 4
C_DELTA_BIT: 4

Initialize PREFETCH FILTER
FILTER_SET: 1024

*** ChampSim Multicore Out-of-Order Simulator ***

Warmup Instructions: 50000000
Simulation Instructions: 50000000
Number of CPUs: 1
LLC sets: 2048
LLC ways: 16
Off-chip DRAM Size: 4096 MB Channels: 1 Width: 64-bit Data Rate: 3200 MT/s

CPU 0 runs /home/ykhodke/ChampSim/dpc3_traces/spec_x264_001.champsimtrace.xz
CPU 0 Temporal Ancestry L1I prefetcher
CPU 0 L1D next line prefetcher
Heartbeat CPU 0 instructions: 10000002 cycles: 3060255 heartbeat IPC: 3.2677 cumulative IPC: 3.2677 (Simulation time: 0 hr 0 min 23 sec) 
Heartbeat CPU 0 instructions: 20000002 cycles: 6111264 heartbeat IPC: 3.2776 cumulative IPC: 3.27265 (Simulation time: 0 hr 0 min 49 sec) 
Heartbeat CPU 0 instructions: 30000002 cycles: 9147645 heartbeat IPC: 3.29339 cumulative IPC: 3.27953 (Simulation time: 0 hr 1 min 16 sec) 
Heartbeat CPU 0 instructions: 40000000 cycles: 12193305 heartbeat IPC: 3.28336 cumulative IPC: 3.28049 (Simulation time: 0 hr 1 min 43 sec) 
Heartbeat CPU 0 instructions: 50000000 cycles: 15237416 heartbeat IPC: 3.28503 cumulative IPC: 3.2814 (Simulation time: 0 hr 2 min 10 sec) 

Warmup complete CPU 0 instructions: 50000004 cycles: 15237417 (Simulation time: 0 hr 2 min 10 sec) 

Heartbeat CPU 0 instructions: 60000000 cycles: 21180657 heartbeat IPC: 1.68258 cumulative IPC: 1.68258 (Simulation time: 0 hr 2 min 32 sec) 
Heartbeat CPU 0 instructions: 70000000 cycles: 27102056 heartbeat IPC: 1.68879 cumulative IPC: 1.68568 (Simulation time: 0 hr 2 min 54 sec) 
Heartbeat CPU 0 instructions: 80000003 cycles: 33170292 heartbeat IPC: 1.64793 cumulative IPC: 1.67291 (Simulation time: 0 hr 3 min 17 sec) 
Heartbeat CPU 0 instructions: 90000000 cycles: 39218638 heartbeat IPC: 1.65334 cumulative IPC: 1.66797 (Simulation time: 0 hr 3 min 40 sec) 
Heartbeat CPU 0 instructions: 100000002 cycles: 45123753 heartbeat IPC: 1.69345 cumulative IPC: 1.67301 (Simulation time: 0 hr 4 min 3 sec) 
Finished CPU 0 instructions: 50000002 cycles: 29886337 cumulative IPC: 1.67301 (Simulation time: 0 hr 4 min 3 sec) 

ChampSim completed all CPUs

Region of Interest Statistics

CPU 0 cumulative IPC: 1.67301 instructions: 50000002 cycles: 29886337
L1D TOTAL     ACCESS:   12966576  HIT:   12805631  MISS:     160945
L1D LOAD      ACCESS:    5099594  HIT:    5044504  MISS:      55090
L1D RFO       ACCESS:    2881148  HIT:    2846877  MISS:      34271
L1D PREFETCH  ACCESS:    4985834  HIT:    4914250  MISS:      71584
L1D WRITEBACK ACCESS:          0  HIT:          0  MISS:          0
L1D PREFETCH  REQUESTED:    5116327  ISSUED:    5049184  USEFUL:      25801  USELESS:      45591
L1D AVERAGE MISS LATENCY: 46.0663 cycles
L1I TOTAL     ACCESS:    8900612  HIT:    8204939  MISS:     695673
L1I LOAD      ACCESS:    8051269  HIT:    8047792  MISS:       3477
L1I RFO       ACCESS:          0  HIT:          0  MISS:          0
L1I PREFETCH  ACCESS:     849343  HIT:     157147  MISS:     692196
L1I WRITEBACK ACCESS:          0  HIT:          0  MISS:          0
L1I PREFETCH  REQUESTED:    1789460  ISSUED:    1789232  USEFUL:     334215  USELESS:     357995
L1I AVERAGE MISS LATENCY: 14.7124 cycles
L2C TOTAL     ACCESS:    1088232  HIT:    1048768  MISS:      39464
L2C LOAD      ACCESS:      55270  HIT:      49816  MISS:       5454
L2C RFO       ACCESS:      34085  HIT:      21950  MISS:      12135
L2C PREFETCH  ACCESS:     955789  HIT:     934075  MISS:      21714
L2C WRITEBACK ACCESS:      43088  HIT:      42927  MISS:        161
L2C PREFETCH  REQUESTED:     316115  ISSUED:     315992  USEFUL:       9100  USELESS:      12954
L2C AVERAGE MISS LATENCY: 127.371 cycles
LLC TOTAL     ACCESS:      94402  HIT:      65167  MISS:      29235
LLC LOAD      ACCESS:       5454  HIT:       3081  MISS:       2373
LLC RFO       ACCESS:      12135  HIT:        479  MISS:      11656
LLC PREFETCH  ACCESS:      63086  HIT:      47946  MISS:      15140
LLC WRITEBACK ACCESS:      13727  HIT:      13661  MISS:         66
LLC PREFETCH  REQUESTED:          0  ISSUED:          0  USEFUL:       1479  USELESS:      14200
LLC AVERAGE MISS LATENCY: 164.582 cycles
Major fault: 0 Minor fault: 1284
CPU 0 L1D next line prefetcher final stats

DRAM Statistics
 CHANNEL 0
 RQ ROW_BUFFER_HIT:       8856  ROW_BUFFER_MISS:      20313
 DBUS_CONGESTED:      11738
 WQ ROW_BUFFER_HIT:       2880  ROW_BUFFER_MISS:       9737  FULL:          0

 AVG_CONGESTED_CYCLE: 6

CPU 0 Branch Prediction Accuracy: 97.1633% MPKI: 1.73704 Average ROB Occupancy at Mispredict: 42.6394

Branch types
NOT_BRANCH: 46937921 93.8758%
BRANCH_DIRECT_JUMP: 170816 0.341632%
BRANCH_INDIRECT: 0 0%
BRANCH_CONDITIONAL: 2532774 5.06555%
BRANCH_DIRECT_CALL: 114227 0.228454%
BRANCH_INDIRECT_CALL: 64863 0.129726%
BRANCH_RETURN: 179089 0.358178%
BRANCH_OTHER: 0 0%

