Initialize SIGNATURE TABLE
ST_SET: 1
ST_WAY: 256
ST_TAG_BIT: 16
ST_TAG_MASK: ffff

Initialize PATTERN TABLE
PT_SET: 512
PT_WAY: 4
SIG_DELTA_BIT: 7
C_SIG_BIT: 4
C_DELTA_BIT: 4

Initialize PREFETCH FILTER
FILTER_SET: 1024

*** ChampSim Multicore Out-of-Order Simulator ***

Warmup Instructions: 50000000
Simulation Instructions: 50000000
Number of CPUs: 1
LLC sets: 2048
LLC ways: 16
Off-chip DRAM Size: 4096 MB Channels: 1 Width: 64-bit Data Rate: 3200 MT/s

CPU 0 runs /home/ykhodke/ChampSim/dpc3_traces/spec_perlbench_001.champsimtrace.xz
CPU 0 Temporal Ancestry L1I prefetcher
CPU 0 L1D next line prefetcher
Heartbeat CPU 0 instructions: 10000000 cycles: 3276821 heartbeat IPC: 3.05174 cumulative IPC: 3.05174 (Simulation time: 0 hr 0 min 35 sec) 
Heartbeat CPU 0 instructions: 20000000 cycles: 6543731 heartbeat IPC: 3.061 cumulative IPC: 3.05636 (Simulation time: 0 hr 1 min 35 sec) 
Heartbeat CPU 0 instructions: 30000002 cycles: 9863525 heartbeat IPC: 3.01224 cumulative IPC: 3.04151 (Simulation time: 0 hr 2 min 47 sec) 
Heartbeat CPU 0 instructions: 40000002 cycles: 13120431 heartbeat IPC: 3.0704 cumulative IPC: 3.04868 (Simulation time: 0 hr 3 min 55 sec) 
Heartbeat CPU 0 instructions: 50000001 cycles: 16395625 heartbeat IPC: 3.05325 cumulative IPC: 3.04959 (Simulation time: 0 hr 5 min 1 sec) 

Warmup complete CPU 0 instructions: 50000001 cycles: 16395625 (Simulation time: 0 hr 5 min 1 sec) 

Heartbeat CPU 0 instructions: 60000001 cycles: 24878237 heartbeat IPC: 1.17888 cumulative IPC: 1.17888 (Simulation time: 0 hr 6 min 6 sec) 
Heartbeat CPU 0 instructions: 70000003 cycles: 33184249 heartbeat IPC: 1.20395 cumulative IPC: 1.19128 (Simulation time: 0 hr 7 min 14 sec) 
Heartbeat CPU 0 instructions: 80000000 cycles: 41752298 heartbeat IPC: 1.16713 cumulative IPC: 1.18312 (Simulation time: 0 hr 8 min 20 sec) 
Heartbeat CPU 0 instructions: 90000000 cycles: 47570512 heartbeat IPC: 1.71874 cumulative IPC: 1.28308 (Simulation time: 0 hr 9 min 19 sec) 
Heartbeat CPU 0 instructions: 100000002 cycles: 53563253 heartbeat IPC: 1.66869 cumulative IPC: 1.34526 (Simulation time: 0 hr 10 min 17 sec) 
Finished CPU 0 instructions: 50000001 cycles: 37167628 cumulative IPC: 1.34526 (Simulation time: 0 hr 10 min 17 sec) 

ChampSim completed all CPUs

Region of Interest Statistics

CPU 0 cumulative IPC: 1.34526 instructions: 50000001 cycles: 37167628
L1D TOTAL     ACCESS:   20753712  HIT:   20338609  MISS:     415103
L1D LOAD      ACCESS:    7206285  HIT:    6992561  MISS:     213724
L1D RFO       ACCESS:    6542917  HIT:    6524372  MISS:      18545
L1D PREFETCH  ACCESS:    7004510  HIT:    6821676  MISS:     182834
L1D WRITEBACK ACCESS:          0  HIT:          0  MISS:          0
L1D PREFETCH  REQUESTED:    7222798  ISSUED:    7107686  USEFUL:      55147  USELESS:     127682
L1D AVERAGE MISS LATENCY: 62.764 cycles
L1I TOTAL     ACCESS:   12644392  HIT:    9647149  MISS:    2997243
L1I LOAD      ACCESS:    9237452  HIT:    9139676  MISS:      97776
L1I RFO       ACCESS:          0  HIT:          0  MISS:          0
L1I PREFETCH  ACCESS:    3406940  HIT:     507473  MISS:    2899467
L1I WRITEBACK ACCESS:          0  HIT:          0  MISS:          0
L1I PREFETCH  REQUESTED:    6630058  ISSUED:    6600708  USEFUL:     812545  USELESS:    2086939
L1I AVERAGE MISS LATENCY: 15.4354 cycles
L2C TOTAL     ACCESS:    3893551  HIT:    3701487  MISS:     192064
L2C LOAD      ACCESS:     258350  HIT:     175058  MISS:      83292
L2C RFO       ACCESS:      18301  HIT:      12232  MISS:       6069
L2C PREFETCH  ACCESS:    3537939  HIT:    3436007  MISS:     101932
L2C WRITEBACK ACCESS:      78961  HIT:      78190  MISS:        771
L2C PREFETCH  REQUESTED:     677290  ISSUED:     677265  USEFUL:       6555  USELESS:      95016
L2C AVERAGE MISS LATENCY: 116.574 cycles
LLC TOTAL     ACCESS:     360821  HIT:     223729  MISS:     137092
LLC LOAD      ACCESS:      83291  HIT:      30243  MISS:      53048
LLC RFO       ACCESS:       6069  HIT:       2893  MISS:       3176
LLC PREFETCH  ACCESS:     243195  HIT:     162692  MISS:      80503
LLC WRITEBACK ACCESS:      28266  HIT:      27901  MISS:        365
LLC PREFETCH  REQUESTED:          0  ISSUED:          0  USEFUL:       8509  USELESS:      72441
LLC AVERAGE MISS LATENCY: 160.67 cycles
Major fault: 0 Minor fault: 6366
CPU 0 L1D next line prefetcher final stats

DRAM Statistics
 CHANNEL 0
 RQ ROW_BUFFER_HIT:      29448  ROW_BUFFER_MISS:     107279
 DBUS_CONGESTED:      50911
 WQ ROW_BUFFER_HIT:       4629  ROW_BUFFER_MISS:      12512  FULL:          0

 AVG_CONGESTED_CYCLE: 4

CPU 0 Branch Prediction Accuracy: 98.7418% MPKI: 2.47758 Average ROB Occupancy at Mispredict: 77.2739

Branch types
NOT_BRANCH: 40154100 80.3082%
BRANCH_DIRECT_JUMP: 817094 1.63419%
BRANCH_INDIRECT: 303787 0.607574%
BRANCH_CONDITIONAL: 7492103 14.9842%
BRANCH_DIRECT_CALL: 471777 0.943554%
BRANCH_INDIRECT_CALL: 144546 0.289092%
BRANCH_RETURN: 616324 1.23265%
BRANCH_OTHER: 0 0%

