Initialize SIGNATURE TABLE
ST_SET: 1
ST_WAY: 256
ST_TAG_BIT: 16
ST_TAG_MASK: ffff

Initialize PATTERN TABLE
PT_SET: 512
PT_WAY: 4
SIG_DELTA_BIT: 7
C_SIG_BIT: 4
C_DELTA_BIT: 4

Initialize PREFETCH FILTER
FILTER_SET: 1024

*** ChampSim Multicore Out-of-Order Simulator ***

Warmup Instructions: 50000000
Simulation Instructions: 50000000
Number of CPUs: 1
LLC sets: 2048
LLC ways: 16
Off-chip DRAM Size: 4096 MB Channels: 1 Width: 64-bit Data Rate: 3200 MT/s

CPU 0 runs /home/ykhodke/ChampSim/dpc3_traces/spec_gcc_003.champsimtrace.xz
CPU 0 Temporal Ancestry L1I prefetcher
CPU 0 L1D next line prefetcher
Heartbeat CPU 0 instructions: 10000001 cycles: 3490303 heartbeat IPC: 2.86508 cumulative IPC: 2.86508 (Simulation time: 0 hr 0 min 43 sec) 
Heartbeat CPU 0 instructions: 20000000 cycles: 6961158 heartbeat IPC: 2.88113 cumulative IPC: 2.87309 (Simulation time: 0 hr 1 min 28 sec) 
Heartbeat CPU 0 instructions: 30000002 cycles: 10406993 heartbeat IPC: 2.90205 cumulative IPC: 2.88268 (Simulation time: 0 hr 2 min 17 sec) 
Heartbeat CPU 0 instructions: 40000000 cycles: 13876298 heartbeat IPC: 2.88242 cumulative IPC: 2.88261 (Simulation time: 0 hr 3 min 7 sec) 
Heartbeat CPU 0 instructions: 50000001 cycles: 17192327 heartbeat IPC: 3.01566 cumulative IPC: 2.90827 (Simulation time: 0 hr 3 min 58 sec) 

Warmup complete CPU 0 instructions: 50000001 cycles: 17192327 (Simulation time: 0 hr 3 min 58 sec) 

Heartbeat CPU 0 instructions: 60000000 cycles: 57230462 heartbeat IPC: 0.249762 cumulative IPC: 0.249762 (Simulation time: 0 hr 5 min 17 sec) 
Heartbeat CPU 0 instructions: 70000000 cycles: 99950348 heartbeat IPC: 0.234083 cumulative IPC: 0.241668 (Simulation time: 0 hr 6 min 36 sec) 
Heartbeat CPU 0 instructions: 80000002 cycles: 143706720 heartbeat IPC: 0.228538 cumulative IPC: 0.237127 (Simulation time: 0 hr 7 min 56 sec) 
Heartbeat CPU 0 instructions: 90000002 cycles: 180789327 heartbeat IPC: 0.269668 cumulative IPC: 0.244503 (Simulation time: 0 hr 9 min 11 sec) 
Heartbeat CPU 0 instructions: 100000001 cycles: 227408870 heartbeat IPC: 0.214502 cumulative IPC: 0.23785 (Simulation time: 0 hr 10 min 34 sec) 
Finished CPU 0 instructions: 50000000 cycles: 210216543 cumulative IPC: 0.23785 (Simulation time: 0 hr 10 min 34 sec) 

ChampSim completed all CPUs

Region of Interest Statistics

CPU 0 cumulative IPC: 0.23785 instructions: 50000000 cycles: 210216543
L1D TOTAL     ACCESS:   16907595  HIT:   11183294  MISS:    5724301
L1D LOAD      ACCESS:    4593923  HIT:    4210859  MISS:     383064
L1D RFO       ACCESS:    8210278  HIT:    3158601  MISS:    5051677
L1D PREFETCH  ACCESS:    4103394  HIT:    3813834  MISS:     289560
L1D WRITEBACK ACCESS:          0  HIT:          0  MISS:          0
L1D PREFETCH  REQUESTED:    4611981  ISSUED:    4553107  USEFUL:     152158  USELESS:     137582
L1D AVERAGE MISS LATENCY: 505.038 cycles
L1I TOTAL     ACCESS:   15492290  HIT:   11899515  MISS:    3592775
L1I LOAD      ACCESS:   11350408  HIT:   11205830  MISS:     144578
L1I RFO       ACCESS:          0  HIT:          0  MISS:          0
L1I PREFETCH  ACCESS:    4141882  HIT:     693685  MISS:    3448197
L1I WRITEBACK ACCESS:          0  HIT:          0  MISS:          0
L1I PREFETCH  REQUESTED:    9079189  ISSUED:    8818730  USEFUL:    1010237  USELESS:    2437934
L1I AVERAGE MISS LATENCY: 29.6779 cycles
L2C TOTAL     ACCESS:   14789664  HIT:    8546387  MISS:    6243277
L2C LOAD      ACCESS:     282740  HIT:     104373  MISS:     178367
L2C RFO       ACCESS:    5049897  HIT:       6474  MISS:    5043423
L2C PREFETCH  ACCESS:    4299137  HIT:    3278059  MISS:    1021078
L2C WRITEBACK ACCESS:    5157890  HIT:    5157481  MISS:        409
L2C PREFETCH  REQUESTED:    1205667  ISSUED:    1205610  USEFUL:      49138  USELESS:     969556
L2C AVERAGE MISS LATENCY: 461.145 cycles
LLC TOTAL     ACCESS:   11844870  HIT:    7171597  MISS:    4673273
LLC LOAD      ACCESS:     178335  HIT:     132228  MISS:      46107
LLC RFO       ACCESS:    5043424  HIT:     649009  MISS:    4394415
LLC PREFETCH  ACCESS:    1489815  HIT:    1257064  MISS:     232751
LLC WRITEBACK ACCESS:    5133296  HIT:    5133296  MISS:          0
LLC PREFETCH  REQUESTED:          0  ISSUED:          0  USEFUL:       9912  USELESS:     222780
LLC AVERAGE MISS LATENCY: 580.204 cycles
Major fault: 0 Minor fault: 2820
CPU 0 L1D next line prefetcher final stats

DRAM Statistics
 CHANNEL 0
 RQ ROW_BUFFER_HIT:    1381344  ROW_BUFFER_MISS:    3291876
 DBUS_CONGESTED:    8135438
 WQ ROW_BUFFER_HIT:    1175273  ROW_BUFFER_MISS:    3247398  FULL:          0

 AVG_CONGESTED_CYCLE: 6

CPU 0 Branch Prediction Accuracy: 99.665% MPKI: 0.78342 Average ROB Occupancy at Mispredict: 114.743

Branch types
NOT_BRANCH: 38305856 76.6117%
BRANCH_DIRECT_JUMP: 384281 0.768562%
BRANCH_INDIRECT: 71949 0.143898%
BRANCH_CONDITIONAL: 9879825 19.7597%
BRANCH_DIRECT_CALL: 650586 1.30117%
BRANCH_INDIRECT_CALL: 28456 0.056912%
BRANCH_RETURN: 679046 1.35809%
BRANCH_OTHER: 0 0%

