Initialize SIGNATURE TABLE
ST_SET: 1
ST_WAY: 256
ST_TAG_BIT: 16
ST_TAG_MASK: ffff

Initialize PATTERN TABLE
PT_SET: 512
PT_WAY: 4
SIG_DELTA_BIT: 7
C_SIG_BIT: 4
C_DELTA_BIT: 4

Initialize PREFETCH FILTER
FILTER_SET: 1024

*** ChampSim Multicore Out-of-Order Simulator ***

Warmup Instructions: 50000000
Simulation Instructions: 50000000
Number of CPUs: 1
LLC sets: 2048
LLC ways: 16
Off-chip DRAM Size: 4096 MB Channels: 1 Width: 64-bit Data Rate: 3200 MT/s

CPU 0 runs /home/ykhodke/ChampSim/dpc3_traces/client_007.champsimtrace.xz
CPU 0 L1D next line prefetcher
Heartbeat CPU 0 instructions: 10000001 cycles: 3643799 heartbeat IPC: 2.74439 cumulative IPC: 2.74439 (Simulation time: 0 hr 0 min 13 sec) 
Heartbeat CPU 0 instructions: 20000003 cycles: 7037704 heartbeat IPC: 2.94646 cumulative IPC: 2.84184 (Simulation time: 0 hr 0 min 26 sec) 
Heartbeat CPU 0 instructions: 30000000 cycles: 10911891 heartbeat IPC: 2.58119 cumulative IPC: 2.74929 (Simulation time: 0 hr 0 min 40 sec) 
Heartbeat CPU 0 instructions: 40000003 cycles: 15071989 heartbeat IPC: 2.40379 cumulative IPC: 2.65393 (Simulation time: 0 hr 0 min 54 sec) 
Heartbeat CPU 0 instructions: 50000002 cycles: 18478475 heartbeat IPC: 2.93558 cumulative IPC: 2.70585 (Simulation time: 0 hr 1 min 7 sec) 

Warmup complete CPU 0 instructions: 50000002 cycles: 18478475 (Simulation time: 0 hr 1 min 7 sec) 

Heartbeat CPU 0 instructions: 60000003 cycles: 27180893 heartbeat IPC: 1.14911 cumulative IPC: 1.14911 (Simulation time: 0 hr 1 min 20 sec) 
Heartbeat CPU 0 instructions: 70000003 cycles: 36198993 heartbeat IPC: 1.10888 cumulative IPC: 1.12864 (Simulation time: 0 hr 1 min 35 sec) 
Heartbeat CPU 0 instructions: 80000002 cycles: 42315432 heartbeat IPC: 1.63494 cumulative IPC: 1.25855 (Simulation time: 0 hr 1 min 45 sec) 
Heartbeat CPU 0 instructions: 90000002 cycles: 52107297 heartbeat IPC: 1.02126 cumulative IPC: 1.18946 (Simulation time: 0 hr 1 min 58 sec) 
Heartbeat CPU 0 instructions: 100000002 cycles: 61065552 heartbeat IPC: 1.11629 cumulative IPC: 1.17407 (Simulation time: 0 hr 2 min 11 sec) 
Finished CPU 0 instructions: 50000000 cycles: 42587077 cumulative IPC: 1.17407 (Simulation time: 0 hr 2 min 11 sec) 

ChampSim completed all CPUs

Region of Interest Statistics

CPU 0 cumulative IPC: 1.17407 instructions: 50000000 cycles: 42587077
L1D TOTAL     ACCESS:   21859809  HIT:   20689115  MISS:    1170694
L1D LOAD      ACCESS:    8683985  HIT:    8159398  MISS:     524587
L1D RFO       ACCESS:    4888058  HIT:    4796885  MISS:      91173
L1D PREFETCH  ACCESS:    8287766  HIT:    7732832  MISS:     554934
L1D WRITEBACK ACCESS:          0  HIT:          0  MISS:          0
L1D PREFETCH  REQUESTED:    8735821  ISSUED:    8494366  USEFUL:     173493  USELESS:     381456
L1D AVERAGE MISS LATENCY: 34.0397 cycles
L1I TOTAL     ACCESS:    8999059  HIT:    8195776  MISS:     803283
L1I LOAD      ACCESS:    8999059  HIT:    8195776  MISS:     803283
L1I RFO       ACCESS:          0  HIT:          0  MISS:          0
L1I PREFETCH  ACCESS:          0  HIT:          0  MISS:          0
L1I WRITEBACK ACCESS:          0  HIT:          0  MISS:          0
L1I PREFETCH  REQUESTED:          0  ISSUED:          0  USEFUL:          0  USELESS:          0
L1I AVERAGE MISS LATENCY: 15.5366 cycles
L2C TOTAL     ACCESS:    3389576  HIT:    3183093  MISS:     206483
L2C LOAD      ACCESS:    1299948  HIT:    1221095  MISS:      78853
L2C RFO       ACCESS:      89428  HIT:      47857  MISS:      41571
L2C PREFETCH  ACCESS:    1672127  HIT:    1586253  MISS:      85874
L2C WRITEBACK ACCESS:     328073  HIT:     327888  MISS:        185
L2C PREFETCH  REQUESTED:    2302454  ISSUED:    2302140  USEFUL:       8419  USELESS:      75757
L2C AVERAGE MISS LATENCY: 119.819 cycles
LLC TOTAL     ACCESS:     919662  HIT:     753551  MISS:     166111
LLC LOAD      ACCESS:      78729  HIT:      41104  MISS:      37625
LLC RFO       ACCESS:      41571  HIT:       7150  MISS:      34421
LLC PREFETCH  ACCESS:     724868  HIT:     631098  MISS:      93770
LLC WRITEBACK ACCESS:      74494  HIT:      74199  MISS:        295
LLC PREFETCH  REQUESTED:          0  ISSUED:          0  USEFUL:      20137  USELESS:      72061
LLC AVERAGE MISS LATENCY: 175.992 cycles
Major fault: 0 Minor fault: 4405
CPU 0 L1D next line prefetcher final stats

DRAM Statistics
 CHANNEL 0
 RQ ROW_BUFFER_HIT:      34634  ROW_BUFFER_MISS:     131174
 DBUS_CONGESTED:      92981
 WQ ROW_BUFFER_HIT:      13431  ROW_BUFFER_MISS:      45222  FULL:          0

 AVG_CONGESTED_CYCLE: 5

CPU 0 Branch Prediction Accuracy: 98.8607% MPKI: 1.8623 Average ROB Occupancy at Mispredict: 105.261

Branch types
NOT_BRANCH: 41826773 83.6535%
BRANCH_DIRECT_JUMP: 735330 1.47066%
BRANCH_INDIRECT: 269194 0.538388%
BRANCH_CONDITIONAL: 5957947 11.9159%
BRANCH_DIRECT_CALL: 368758 0.737516%
BRANCH_INDIRECT_CALL: 226975 0.45395%
BRANCH_RETURN: 614696 1.22939%
BRANCH_OTHER: 0 0%

