Initialize SIGNATURE TABLE
ST_SET: 1
ST_WAY: 256
ST_TAG_BIT: 16
ST_TAG_MASK: ffff

Initialize PATTERN TABLE
PT_SET: 512
PT_WAY: 4
SIG_DELTA_BIT: 7
C_SIG_BIT: 4
C_DELTA_BIT: 4

Initialize PREFETCH FILTER
FILTER_SET: 1024

*** ChampSim Multicore Out-of-Order Simulator ***

Warmup Instructions: 50000000
Simulation Instructions: 50000000
Number of CPUs: 1
LLC sets: 2048
LLC ways: 16
Off-chip DRAM Size: 4096 MB Channels: 1 Width: 64-bit Data Rate: 3200 MT/s

CPU 0 runs /home/ykhodke/ChampSim/dpc3_traces/client_001.champsimtrace.xz
L1I D-JOLT instruction prefetcher has been constructed!
CPU 0 L1D next line prefetcher
Heartbeat CPU 0 instructions: 10000003 cycles: 3411177 heartbeat IPC: 2.93154 cumulative IPC: 2.93154 (Simulation time: 0 hr 0 min 14 sec) 
Heartbeat CPU 0 instructions: 20000001 cycles: 7120058 heartbeat IPC: 2.69623 cumulative IPC: 2.80897 (Simulation time: 0 hr 0 min 28 sec) 
Heartbeat CPU 0 instructions: 30000001 cycles: 10483662 heartbeat IPC: 2.973 cumulative IPC: 2.8616 (Simulation time: 0 hr 0 min 43 sec) 
Heartbeat CPU 0 instructions: 40000003 cycles: 14353662 heartbeat IPC: 2.58398 cumulative IPC: 2.78675 (Simulation time: 0 hr 0 min 57 sec) 
Heartbeat CPU 0 instructions: 50000003 cycles: 17651857 heartbeat IPC: 3.03196 cumulative IPC: 2.83256 (Simulation time: 0 hr 1 min 11 sec) 

Warmup complete CPU 0 instructions: 50000003 cycles: 17651857 (Simulation time: 0 hr 1 min 11 sec) 

Heartbeat CPU 0 instructions: 60000000 cycles: 26696667 heartbeat IPC: 1.10561 cumulative IPC: 1.10561 (Simulation time: 0 hr 1 min 25 sec) 
Heartbeat CPU 0 instructions: 70000000 cycles: 33108997 heartbeat IPC: 1.5595 cumulative IPC: 1.2939 (Simulation time: 0 hr 1 min 38 sec) 
Heartbeat CPU 0 instructions: 80000002 cycles: 42450062 heartbeat IPC: 1.07054 cumulative IPC: 1.20976 (Simulation time: 0 hr 1 min 53 sec) 
Heartbeat CPU 0 instructions: 90000000 cycles: 48736188 heartbeat IPC: 1.5908 cumulative IPC: 1.28682 (Simulation time: 0 hr 2 min 6 sec) 
Heartbeat CPU 0 instructions: 100000002 cycles: 57587035 heartbeat IPC: 1.12984 cumulative IPC: 1.25203 (Simulation time: 0 hr 2 min 19 sec) 
Finished CPU 0 instructions: 50000003 cycles: 39935179 cumulative IPC: 1.25203 (Simulation time: 0 hr 2 min 19 sec) 

ChampSim completed all CPUs

Region of Interest Statistics

CPU 0 cumulative IPC: 1.25203 instructions: 50000003 cycles: 39935179
L1D TOTAL     ACCESS:   21224437  HIT:   20387971  MISS:     836466
L1D LOAD      ACCESS:    8813472  HIT:    8418539  MISS:     394933
L1D RFO       ACCESS:    4040873  HIT:    3981790  MISS:      59083
L1D PREFETCH  ACCESS:    8370092  HIT:    7987642  MISS:     382450
L1D WRITEBACK ACCESS:          0  HIT:          0  MISS:          0
L1D PREFETCH  REQUESTED:    8858676  ISSUED:    8550270  USEFUL:     129470  USELESS:     252954
L1D AVERAGE MISS LATENCY: 48.0319 cycles
L1I TOTAL     ACCESS:   13881153  HIT:   12962363  MISS:     918790
L1I LOAD      ACCESS:    8955619  HIT:    8940919  MISS:      14700
L1I RFO       ACCESS:          0  HIT:          0  MISS:          0
L1I PREFETCH  ACCESS:    4925534  HIT:    4021444  MISS:     904090
L1I WRITEBACK ACCESS:          0  HIT:          0  MISS:          0
L1I PREFETCH  REQUESTED:    5135755  ISSUED:    5029538  USEFUL:     456847  USELESS:     447102
L1I AVERAGE MISS LATENCY: 18.0626 cycles
L2C TOTAL     ACCESS:    2762899  HIT:    2458011  MISS:     304888
L2C LOAD      ACCESS:     388013  HIT:     274352  MISS:     113661
L2C RFO       ACCESS:      58312  HIT:      21476  MISS:      36836
L2C PREFETCH  ACCESS:    2126968  HIT:    1972818  MISS:     154150
L2C WRITEBACK ACCESS:     189606  HIT:     189365  MISS:        241
L2C PREFETCH  REQUESTED:    2200258  ISSUED:    2190142  USEFUL:      13647  USELESS:     139309
L2C AVERAGE MISS LATENCY: 106.186 cycles
LLC TOTAL     ACCESS:     884636  HIT:     684762  MISS:     199874
LLC LOAD      ACCESS:     113371  HIT:      70504  MISS:      42867
LLC RFO       ACCESS:      36836  HIT:       8604  MISS:      28232
LLC PREFETCH  ACCESS:     627979  HIT:     499970  MISS:     128009
LLC WRITEBACK ACCESS:     106450  HIT:     105684  MISS:        766
LLC PREFETCH  REQUESTED:          0  ISSUED:          0  USEFUL:      28091  USELESS:     102109
LLC AVERAGE MISS LATENCY: 189.031 cycles
Major fault: 0 Minor fault: 3439
CPU 0 L1D next line prefetcher final stats

DRAM Statistics
 CHANNEL 0
 RQ ROW_BUFFER_HIT:      47655  ROW_BUFFER_MISS:     151445
 DBUS_CONGESTED:     116379
 WQ ROW_BUFFER_HIT:      15877  ROW_BUFFER_MISS:      64529  FULL:          0

 AVG_CONGESTED_CYCLE: 5

CPU 0 Branch Prediction Accuracy: 97.9037% MPKI: 3.63418 Average ROB Occupancy at Mispredict: 87.1454

Branch types
NOT_BRANCH: 41331383 82.6628%
BRANCH_DIRECT_JUMP: 455615 0.91123%
BRANCH_INDIRECT: 20390 0.04078%
BRANCH_CONDITIONAL: 6745374 13.4907%
BRANCH_DIRECT_CALL: 494532 0.989064%
BRANCH_INDIRECT_CALL: 228815 0.45763%
BRANCH_RETURN: 723560 1.44712%
BRANCH_OTHER: 0 0%

