Initialize SIGNATURE TABLE
ST_SET: 1
ST_WAY: 256
ST_TAG_BIT: 16
ST_TAG_MASK: ffff

Initialize PATTERN TABLE
PT_SET: 512
PT_WAY: 4
SIG_DELTA_BIT: 7
C_SIG_BIT: 4
C_DELTA_BIT: 4

Initialize PREFETCH FILTER
FILTER_SET: 1024

*** ChampSim Multicore Out-of-Order Simulator ***

Warmup Instructions: 50000000
Simulation Instructions: 50000000
Number of CPUs: 1
LLC sets: 2048
LLC ways: 16
Off-chip DRAM Size: 4096 MB Channels: 1 Width: 64-bit Data Rate: 3200 MT/s

CPU 0 runs /home/ykhodke/ChampSim/dpc3_traces/client_007.champsimtrace.xz
LHT KB: 126.25
SCC KB: 1.56
Total KB: 127.81
CPU 0 L1D next line prefetcher
Heartbeat CPU 0 instructions: 10000001 cycles: 3642434 heartbeat IPC: 2.74542 cumulative IPC: 2.74542 (Simulation time: 0 hr 0 min 15 sec) 
Heartbeat CPU 0 instructions: 20000003 cycles: 7034798 heartbeat IPC: 2.9478 cumulative IPC: 2.84301 (Simulation time: 0 hr 0 min 28 sec) 
Heartbeat CPU 0 instructions: 30000000 cycles: 10906996 heartbeat IPC: 2.58251 cumulative IPC: 2.75053 (Simulation time: 0 hr 0 min 44 sec) 
Heartbeat CPU 0 instructions: 40000003 cycles: 15067245 heartbeat IPC: 2.4037 cumulative IPC: 2.65477 (Simulation time: 0 hr 0 min 59 sec) 
Heartbeat CPU 0 instructions: 50000002 cycles: 18472408 heartbeat IPC: 2.93672 cumulative IPC: 2.70674 (Simulation time: 0 hr 1 min 13 sec) 

Warmup complete CPU 0 instructions: 50000002 cycles: 18472408 (Simulation time: 0 hr 1 min 13 sec) 

Heartbeat CPU 0 instructions: 60000003 cycles: 25357688 heartbeat IPC: 1.45237 cumulative IPC: 1.45237 (Simulation time: 0 hr 1 min 28 sec) 
Heartbeat CPU 0 instructions: 70000003 cycles: 34207914 heartbeat IPC: 1.12991 cumulative IPC: 1.27101 (Simulation time: 0 hr 1 min 45 sec) 
Heartbeat CPU 0 instructions: 80000002 cycles: 39504050 heartbeat IPC: 1.88817 cumulative IPC: 1.42642 (Simulation time: 0 hr 1 min 56 sec) 
Heartbeat CPU 0 instructions: 90000002 cycles: 47113485 heartbeat IPC: 1.31416 cumulative IPC: 1.3966 (Simulation time: 0 hr 2 min 12 sec) 
Heartbeat CPU 0 instructions: 100000002 cycles: 56069360 heartbeat IPC: 1.11659 cumulative IPC: 1.3299 (Simulation time: 0 hr 2 min 26 sec) 
Finished CPU 0 instructions: 50000000 cycles: 37596952 cumulative IPC: 1.3299 (Simulation time: 0 hr 2 min 26 sec) 

ChampSim completed all CPUs

Region of Interest Statistics

CPU 0 cumulative IPC: 1.3299 instructions: 50000000 cycles: 37596952
L1D TOTAL     ACCESS:   21200410  HIT:   20031425  MISS:    1168985
L1D LOAD      ACCESS:    8371220  HIT:    7831836  MISS:     539384
L1D RFO       ACCESS:    4868769  HIT:    4777754  MISS:      91015
L1D PREFETCH  ACCESS:    7960421  HIT:    7421835  MISS:     538586
L1D WRITEBACK ACCESS:          0  HIT:          0  MISS:          0
L1D PREFETCH  REQUESTED:    8423715  ISSUED:    8180407  USEFUL:     158084  USELESS:     380517
L1D AVERAGE MISS LATENCY: 34.7763 cycles
L1I TOTAL     ACCESS:   16647662  HIT:   15326340  MISS:    1321322
L1I LOAD      ACCESS:    9115280  HIT:    9055423  MISS:      59857
L1I RFO       ACCESS:          0  HIT:          0  MISS:          0
L1I PREFETCH  ACCESS:    7532382  HIT:    6270917  MISS:    1261465
L1I WRITEBACK ACCESS:          0  HIT:          0  MISS:          0
L1I PREFETCH  REQUESTED:    8260608  ISSUED:    8260608  USEFUL:     833089  USELESS:     428341
L1I AVERAGE MISS LATENCY: 15.8641 cycles
L2C TOTAL     ACCESS:    3641332  HIT:    3432223  MISS:     209109
L2C LOAD      ACCESS:     520262  HIT:     452764  MISS:      67498
L2C RFO       ACCESS:      89485  HIT:      47966  MISS:      41519
L2C PREFETCH  ACCESS:    2703921  HIT:    2603945  MISS:      99976
L2C WRITEBACK ACCESS:     327664  HIT:     327548  MISS:        116
L2C PREFETCH  REQUESTED:    2706041  ISSUED:    2696647  USEFUL:       8907  USELESS:      91326
L2C AVERAGE MISS LATENCY: 127.95 cycles
LLC TOTAL     ACCESS:     992313  HIT:     821658  MISS:     170655
LLC LOAD      ACCESS:      67423  HIT:      33198  MISS:      34225
LLC RFO       ACCESS:      41518  HIT:       7096  MISS:      34422
LLC PREFETCH  ACCESS:     808795  HIT:     707082  MISS:     101713
LLC WRITEBACK ACCESS:      74577  HIT:      74282  MISS:        295
LLC PREFETCH  REQUESTED:          0  ISSUED:          0  USEFUL:      17754  USELESS:      85541
LLC AVERAGE MISS LATENCY: 186.52 cycles
Major fault: 0 Minor fault: 4426
CPU 0 L1D next line prefetcher final stats

DRAM Statistics
 CHANNEL 0
 RQ ROW_BUFFER_HIT:      35993  ROW_BUFFER_MISS:     134362
 DBUS_CONGESTED:      94681
 WQ ROW_BUFFER_HIT:      12920  ROW_BUFFER_MISS:      44834  FULL:          0

 AVG_CONGESTED_CYCLE: 5

CPU 0 Branch Prediction Accuracy: 98.8607% MPKI: 1.8623 Average ROB Occupancy at Mispredict: 113.796

Branch types
NOT_BRANCH: 41826773 83.6535%
BRANCH_DIRECT_JUMP: 735330 1.47066%
BRANCH_INDIRECT: 269194 0.538388%
BRANCH_CONDITIONAL: 5957947 11.9159%
BRANCH_DIRECT_CALL: 368758 0.737516%
BRANCH_INDIRECT_CALL: 226975 0.45395%
BRANCH_RETURN: 614696 1.22939%
BRANCH_OTHER: 0 0%

