Initialize SIGNATURE TABLE
ST_SET: 1
ST_WAY: 256
ST_TAG_BIT: 16
ST_TAG_MASK: ffff

Initialize PATTERN TABLE
PT_SET: 512
PT_WAY: 4
SIG_DELTA_BIT: 7
C_SIG_BIT: 4
C_DELTA_BIT: 4

Initialize PREFETCH FILTER
FILTER_SET: 1024

*** ChampSim Multicore Out-of-Order Simulator ***

Warmup Instructions: 50000000
Simulation Instructions: 50000000
Number of CPUs: 1
LLC sets: 2048
LLC ways: 16
Off-chip DRAM Size: 4096 MB Channels: 1 Width: 64-bit Data Rate: 3200 MT/s

CPU 0 runs /home/ykhodke/ChampSim/dpc3_traces/client_004.champsimtrace.xz
L1I D-JOLT instruction prefetcher has been constructed!
CPU 0 L1D next line prefetcher
Heartbeat CPU 0 instructions: 10000000 cycles: 3592608 heartbeat IPC: 2.78349 cumulative IPC: 2.78349 (Simulation time: 0 hr 0 min 14 sec) 
Heartbeat CPU 0 instructions: 20000003 cycles: 7057073 heartbeat IPC: 2.88645 cumulative IPC: 2.83404 (Simulation time: 0 hr 0 min 28 sec) 
Heartbeat CPU 0 instructions: 30000000 cycles: 10647896 heartbeat IPC: 2.78488 cumulative IPC: 2.81746 (Simulation time: 0 hr 0 min 43 sec) 
Heartbeat CPU 0 instructions: 40000003 cycles: 14328462 heartbeat IPC: 2.71697 cumulative IPC: 2.79165 (Simulation time: 0 hr 0 min 58 sec) 
Heartbeat CPU 0 instructions: 50000001 cycles: 17847981 heartbeat IPC: 2.8413 cumulative IPC: 2.80144 (Simulation time: 0 hr 1 min 12 sec) 

Warmup complete CPU 0 instructions: 50000001 cycles: 17847981 (Simulation time: 0 hr 1 min 12 sec) 

Heartbeat CPU 0 instructions: 60000002 cycles: 25875219 heartbeat IPC: 1.24576 cumulative IPC: 1.24576 (Simulation time: 0 hr 1 min 25 sec) 
Heartbeat CPU 0 instructions: 70000001 cycles: 33904945 heartbeat IPC: 1.24537 cumulative IPC: 1.24557 (Simulation time: 0 hr 1 min 38 sec) 
Heartbeat CPU 0 instructions: 80000002 cycles: 42917994 heartbeat IPC: 1.1095 cumulative IPC: 1.19665 (Simulation time: 0 hr 1 min 51 sec) 
Heartbeat CPU 0 instructions: 90000000 cycles: 51246339 heartbeat IPC: 1.20072 cumulative IPC: 1.19766 (Simulation time: 0 hr 2 min 4 sec) 
Heartbeat CPU 0 instructions: 100000001 cycles: 59410819 heartbeat IPC: 1.22482 cumulative IPC: 1.203 (Simulation time: 0 hr 2 min 17 sec) 
Finished CPU 0 instructions: 50000000 cycles: 41562838 cumulative IPC: 1.203 (Simulation time: 0 hr 2 min 17 sec) 

ChampSim completed all CPUs

Region of Interest Statistics

CPU 0 cumulative IPC: 1.203 instructions: 50000000 cycles: 41562838
L1D TOTAL     ACCESS:   21964834  HIT:   21075875  MISS:     888959
L1D LOAD      ACCESS:    8723268  HIT:    8327401  MISS:     395867
L1D RFO       ACCESS:    4811356  HIT:    4689989  MISS:     121367
L1D PREFETCH  ACCESS:    8430210  HIT:    8058485  MISS:     371725
L1D WRITEBACK ACCESS:          0  HIT:          0  MISS:          0
L1D PREFETCH  REQUESTED:    8762747  ISSUED:    8603128  USEFUL:     133207  USELESS:     238526
L1D AVERAGE MISS LATENCY: 29.4584 cycles
L1I TOTAL     ACCESS:   13671003  HIT:   12613789  MISS:    1057214
L1I LOAD      ACCESS:    9399933  HIT:    9255047  MISS:     144886
L1I RFO       ACCESS:          0  HIT:          0  MISS:          0
L1I PREFETCH  ACCESS:    4271070  HIT:    3358742  MISS:     912328
L1I WRITEBACK ACCESS:          0  HIT:          0  MISS:          0
L1I PREFETCH  REQUESTED:    4657956  ISSUED:    4579049  USEFUL:     513075  USELESS:     399302
L1I AVERAGE MISS LATENCY: 22.096 cycles
L2C TOTAL     ACCESS:    2901693  HIT:    2605161  MISS:     296532
L2C LOAD      ACCESS:     507891  HIT:     418485  MISS:      89406
L2C RFO       ACCESS:     117363  HIT:      44689  MISS:      72674
L2C PREFETCH  ACCESS:    2054403  HIT:    1920551  MISS:     133852
L2C WRITEBACK ACCESS:     222036  HIT:     221436  MISS:        600
L2C PREFETCH  REQUESTED:    1595239  ISSUED:    1594542  USEFUL:      29481  USELESS:     103860
L2C AVERAGE MISS LATENCY: 75.3324 cycles
LLC TOTAL     ACCESS:     696303  HIT:     568085  MISS:     128218
LLC LOAD      ACCESS:      89386  HIT:      59939  MISS:      29447
LLC RFO       ACCESS:      72674  HIT:      42256  MISS:      30418
LLC PREFETCH  ACCESS:     432874  HIT:     364780  MISS:      68094
LLC WRITEBACK ACCESS:     101369  HIT:     101110  MISS:        259
LLC PREFETCH  REQUESTED:          0  ISSUED:          0  USEFUL:      25265  USELESS:      45553
LLC AVERAGE MISS LATENCY: 166.271 cycles
Major fault: 0 Minor fault: 3983
CPU 0 L1D next line prefetcher final stats

DRAM Statistics
 CHANNEL 0
 RQ ROW_BUFFER_HIT:      30499  ROW_BUFFER_MISS:      97448
 DBUS_CONGESTED:      53695
 WQ ROW_BUFFER_HIT:       9983  ROW_BUFFER_MISS:      32770  FULL:          0

 AVG_CONGESTED_CYCLE: 5

CPU 0 Branch Prediction Accuracy: 94.1242% MPKI: 11.6089 Average ROB Occupancy at Mispredict: 55.4926

Branch types
NOT_BRANCH: 40121075 80.2421%
BRANCH_DIRECT_JUMP: 644555 1.28911%
BRANCH_INDIRECT: 201946 0.403892%
BRANCH_CONDITIONAL: 7003556 14.0071%
BRANCH_DIRECT_CALL: 564821 1.12964%
BRANCH_INDIRECT_CALL: 445012 0.890024%
BRANCH_RETURN: 1018716 2.03743%
BRANCH_OTHER: 0 0%

