Initialize SIGNATURE TABLE
ST_SET: 1
ST_WAY: 256
ST_TAG_BIT: 16
ST_TAG_MASK: ffff

Initialize PATTERN TABLE
PT_SET: 512
PT_WAY: 4
SIG_DELTA_BIT: 7
C_SIG_BIT: 4
C_DELTA_BIT: 4

Initialize PREFETCH FILTER
FILTER_SET: 1024

*** ChampSim Multicore Out-of-Order Simulator ***

Warmup Instructions: 50000000
Simulation Instructions: 50000000
Number of CPUs: 1
LLC sets: 2048
LLC ways: 16
Off-chip DRAM Size: 4096 MB Channels: 1 Width: 64-bit Data Rate: 3200 MT/s

CPU 0 runs /home/ykhodke/ChampSim/dpc3_traces/client_005.champsimtrace.xz
LHT KB: 126.25
SCC KB: 1.56
Total KB: 127.81
CPU 0 L1D next line prefetcher
Heartbeat CPU 0 instructions: 10000001 cycles: 3292710 heartbeat IPC: 3.03701 cumulative IPC: 3.03701 (Simulation time: 0 hr 0 min 15 sec) 
Heartbeat CPU 0 instructions: 20000002 cycles: 6699156 heartbeat IPC: 2.93561 cumulative IPC: 2.98545 (Simulation time: 0 hr 0 min 29 sec) 
Heartbeat CPU 0 instructions: 30000001 cycles: 10392465 heartbeat IPC: 2.7076 cumulative IPC: 2.88671 (Simulation time: 0 hr 0 min 45 sec) 
Heartbeat CPU 0 instructions: 40000000 cycles: 14070309 heartbeat IPC: 2.71898 cumulative IPC: 2.84287 (Simulation time: 0 hr 1 min 0 sec) 
Heartbeat CPU 0 instructions: 50000001 cycles: 17343715 heartbeat IPC: 3.05492 cumulative IPC: 2.88289 (Simulation time: 0 hr 1 min 14 sec) 

Warmup complete CPU 0 instructions: 50000001 cycles: 17343715 (Simulation time: 0 hr 1 min 14 sec) 

Heartbeat CPU 0 instructions: 60000002 cycles: 24898651 heartbeat IPC: 1.32364 cumulative IPC: 1.32364 (Simulation time: 0 hr 1 min 29 sec) 
Heartbeat CPU 0 instructions: 70000003 cycles: 32130477 heartbeat IPC: 1.38278 cumulative IPC: 1.35256 (Simulation time: 0 hr 1 min 44 sec) 
Heartbeat CPU 0 instructions: 80000001 cycles: 38983022 heartbeat IPC: 1.45931 cumulative IPC: 1.38637 (Simulation time: 0 hr 2 min 0 sec) 
Heartbeat CPU 0 instructions: 90000002 cycles: 48492550 heartbeat IPC: 1.05158 cumulative IPC: 1.28416 (Simulation time: 0 hr 2 min 16 sec) 
Heartbeat CPU 0 instructions: 100000002 cycles: 56011110 heartbeat IPC: 1.33004 cumulative IPC: 1.29308 (Simulation time: 0 hr 2 min 31 sec) 
Finished CPU 0 instructions: 50000001 cycles: 38667395 cumulative IPC: 1.29308 (Simulation time: 0 hr 2 min 31 sec) 

ChampSim completed all CPUs

Region of Interest Statistics

CPU 0 cumulative IPC: 1.29308 instructions: 50000001 cycles: 38667395
L1D TOTAL     ACCESS:   19621169  HIT:   19085471  MISS:     535698
L1D LOAD      ACCESS:    6642070  HIT:    6470142  MISS:     171928
L1D RFO       ACCESS:    6789207  HIT:    6604548  MISS:     184659
L1D PREFETCH  ACCESS:    6189892  HIT:    6010781  MISS:     179111
L1D WRITEBACK ACCESS:          0  HIT:          0  MISS:          0
L1D PREFETCH  REQUESTED:    6665967  ISSUED:    6297023  USEFUL:      59097  USELESS:     119903
L1D AVERAGE MISS LATENCY: 95.4286 cycles
L1I TOTAL     ACCESS:   22495289  HIT:   20862873  MISS:    1632416
L1I LOAD      ACCESS:    9316240  HIT:    9142561  MISS:     173679
L1I RFO       ACCESS:          0  HIT:          0  MISS:          0
L1I PREFETCH  ACCESS:   13179049  HIT:   11720312  MISS:    1458737
L1I WRITEBACK ACCESS:          0  HIT:          0  MISS:          0
L1I PREFETCH  REQUESTED:   15194172  ISSUED:   15194132  USEFUL:     719950  USELESS:     738749
L1I AVERAGE MISS LATENCY: 18.1656 cycles
L2C TOTAL     ACCESS:    3022837  HIT:    2608339  MISS:     414498
L2C LOAD      ACCESS:     199168  HIT:     120607  MISS:      78561
L2C RFO       ACCESS:     180937  HIT:      31274  MISS:     149663
L2C PREFETCH  ACCESS:    2389694  HIT:    2205202  MISS:     184492
L2C WRITEBACK ACCESS:     253038  HIT:     251256  MISS:       1782
L2C PREFETCH  REQUESTED:    1419770  ISSUED:    1419392  USEFUL:      13139  USELESS:     168767
L2C AVERAGE MISS LATENCY: 127.597 cycles
LLC TOTAL     ACCESS:     937515  HIT:     636657  MISS:     300858
LLC LOAD      ACCESS:      78548  HIT:      38861  MISS:      39687
LLC RFO       ACCESS:     149659  HIT:      15993  MISS:     133666
LLC PREFETCH  ACCESS:     508210  HIT:     381524  MISS:     126686
LLC WRITEBACK ACCESS:     201098  HIT:     200279  MISS:        819
LLC PREFETCH  REQUESTED:          0  ISSUED:          0  USEFUL:      20735  USELESS:      99945
LLC AVERAGE MISS LATENCY: 173.708 cycles
Major fault: 0 Minor fault: 6128
CPU 0 L1D next line prefetcher final stats

DRAM Statistics
 CHANNEL 0
 RQ ROW_BUFFER_HIT:      97422  ROW_BUFFER_MISS:     202612
 DBUS_CONGESTED:     238697
 WQ ROW_BUFFER_HIT:      52554  ROW_BUFFER_MISS:     130699  FULL:          0

 AVG_CONGESTED_CYCLE: 6

CPU 0 Branch Prediction Accuracy: 97.8666% MPKI: 3.9013 Average ROB Occupancy at Mispredict: 90.2133

Branch types
NOT_BRANCH: 40856327 81.7127%
BRANCH_DIRECT_JUMP: 484667 0.969334%
BRANCH_INDIRECT: 85086 0.170172%
BRANCH_CONDITIONAL: 6230887 12.4618%
BRANCH_DIRECT_CALL: 1028917 2.05783%
BRANCH_INDIRECT_CALL: 141825 0.28365%
BRANCH_RETURN: 1171985 2.34397%
BRANCH_OTHER: 0 0%

