Initialize SIGNATURE TABLE
ST_SET: 1
ST_WAY: 256
ST_TAG_BIT: 16
ST_TAG_MASK: ffff

Initialize PATTERN TABLE
PT_SET: 512
PT_WAY: 4
SIG_DELTA_BIT: 7
C_SIG_BIT: 4
C_DELTA_BIT: 4

Initialize PREFETCH FILTER
FILTER_SET: 1024

*** ChampSim Multicore Out-of-Order Simulator ***

Warmup Instructions: 50000000
Simulation Instructions: 50000000
Number of CPUs: 1
LLC sets: 2048
LLC ways: 16
Off-chip DRAM Size: 4096 MB Channels: 1 Width: 64-bit Data Rate: 3200 MT/s

CPU 0 runs /home/ykhodke/ChampSim/dpc3_traces/server_002.champsimtrace.xz
LHT KB: 126.25
SCC KB: 1.56
Total KB: 127.81
CPU 0 L1D next line prefetcher
Heartbeat CPU 0 instructions: 10000000 cycles: 3581239 heartbeat IPC: 2.79233 cumulative IPC: 2.79233 (Simulation time: 0 hr 0 min 15 sec) 
Heartbeat CPU 0 instructions: 20000002 cycles: 7170600 heartbeat IPC: 2.78601 cumulative IPC: 2.78917 (Simulation time: 0 hr 0 min 30 sec) 
Heartbeat CPU 0 instructions: 30000000 cycles: 10711359 heartbeat IPC: 2.82425 cumulative IPC: 2.80077 (Simulation time: 0 hr 0 min 45 sec) 
Heartbeat CPU 0 instructions: 40000000 cycles: 14261604 heartbeat IPC: 2.81671 cumulative IPC: 2.80473 (Simulation time: 0 hr 1 min 0 sec) 
Heartbeat CPU 0 instructions: 50000001 cycles: 17809375 heartbeat IPC: 2.81867 cumulative IPC: 2.80751 (Simulation time: 0 hr 1 min 15 sec) 

Warmup complete CPU 0 instructions: 50000001 cycles: 17809375 (Simulation time: 0 hr 1 min 15 sec) 

Heartbeat CPU 0 instructions: 60000000 cycles: 24248385 heartbeat IPC: 1.55303 cumulative IPC: 1.55303 (Simulation time: 0 hr 1 min 32 sec) 
Heartbeat CPU 0 instructions: 70000003 cycles: 30684458 heartbeat IPC: 1.55374 cumulative IPC: 1.55339 (Simulation time: 0 hr 1 min 48 sec) 
Heartbeat CPU 0 instructions: 80000003 cycles: 37122838 heartbeat IPC: 1.55319 cumulative IPC: 1.55332 (Simulation time: 0 hr 2 min 5 sec) 
Heartbeat CPU 0 instructions: 90000002 cycles: 43559035 heartbeat IPC: 1.55371 cumulative IPC: 1.55342 (Simulation time: 0 hr 2 min 21 sec) 
Heartbeat CPU 0 instructions: 100000003 cycles: 49994656 heartbeat IPC: 1.55385 cumulative IPC: 1.55351 (Simulation time: 0 hr 2 min 38 sec) 
Finished CPU 0 instructions: 50000002 cycles: 32185281 cumulative IPC: 1.55351 (Simulation time: 0 hr 2 min 38 sec) 

ChampSim completed all CPUs

Region of Interest Statistics

CPU 0 cumulative IPC: 1.55351 instructions: 50000002 cycles: 32185281
L1D TOTAL     ACCESS:   21526071  HIT:   21525262  MISS:        809
L1D LOAD      ACCESS:    6602721  HIT:    6602346  MISS:        375
L1D RFO       ACCESS:    8433015  HIT:    8432903  MISS:        112
L1D PREFETCH  ACCESS:    6490335  HIT:    6490013  MISS:        322
L1D WRITEBACK ACCESS:          0  HIT:          0  MISS:          0
L1D PREFETCH  REQUESTED:    6602773  ISSUED:    6497716  USEFUL:         92  USELESS:        231
L1D AVERAGE MISS LATENCY: 35.152 cycles
L1I TOTAL     ACCESS:   27881874  HIT:   27005250  MISS:     876624
L1I LOAD      ACCESS:    9815704  HIT:    9737668  MISS:      78036
L1I RFO       ACCESS:          0  HIT:          0  MISS:          0
L1I PREFETCH  ACCESS:   18066170  HIT:   17267582  MISS:     798588
L1I WRITEBACK ACCESS:          0  HIT:          0  MISS:          0
L1I PREFETCH  REQUESTED:   19869040  ISSUED:   19869040  USEFUL:     684590  USELESS:     113986
L1I AVERAGE MISS LATENCY: 12.8299 cycles
L2C TOTAL     ACCESS:    1018886  HIT:    1018588  MISS:        298
L2C LOAD      ACCESS:       2357  HIT:       2286  MISS:         71
L2C RFO       ACCESS:        112  HIT:        106  MISS:          6
L2C PREFETCH  ACCESS:    1016081  HIT:    1015860  MISS:        221
L2C WRITEBACK ACCESS:        336  HIT:        336  MISS:          0
L2C PREFETCH  REQUESTED:     237888  ISSUED:     237888  USEFUL:         50  USELESS:        130
L2C AVERAGE MISS LATENCY: 79.6174 cycles
LLC TOTAL     ACCESS:      69448  HIT:      68934  MISS:        514
LLC LOAD      ACCESS:         71  HIT:         57  MISS:         14
LLC RFO       ACCESS:          6  HIT:          5  MISS:          1
LLC PREFETCH  ACCESS:      69279  HIT:      68781  MISS:        498
LLC WRITEBACK ACCESS:         92  HIT:         91  MISS:          1
LLC PREFETCH  REQUESTED:          0  ISSUED:          0  USEFUL:          7  USELESS:        147
LLC AVERAGE MISS LATENCY: 223.041 cycles
Major fault: 0 Minor fault: 1880
CPU 0 L1D next line prefetcher final stats

DRAM Statistics
 CHANNEL 0
 RQ ROW_BUFFER_HIT:         64  ROW_BUFFER_MISS:        449
 DBUS_CONGESTED:        223
 WQ ROW_BUFFER_HIT:         60  ROW_BUFFER_MISS:        283  FULL:          0

 AVG_CONGESTED_CYCLE: 6

CPU 0 Branch Prediction Accuracy: 99.8789% MPKI: 0.20388 Average ROB Occupancy at Mispredict: 281.428

Branch types
NOT_BRANCH: 41580696 83.1614%
BRANCH_DIRECT_JUMP: 461630 0.92326%
BRANCH_INDIRECT: 0 0%
BRANCH_CONDITIONAL: 5376439 10.7529%
BRANCH_DIRECT_CALL: 1175775 2.35155%
BRANCH_INDIRECT_CALL: 114840 0.22968%
BRANCH_RETURN: 1290625 2.58125%
BRANCH_OTHER: 0 0%

