Initialize SIGNATURE TABLE
ST_SET: 1
ST_WAY: 256
ST_TAG_BIT: 16
ST_TAG_MASK: ffff

Initialize PATTERN TABLE
PT_SET: 512
PT_WAY: 4
SIG_DELTA_BIT: 7
C_SIG_BIT: 4
C_DELTA_BIT: 4

Initialize PREFETCH FILTER
FILTER_SET: 1024

*** ChampSim Multicore Out-of-Order Simulator ***

Warmup Instructions: 50000000
Simulation Instructions: 50000000
Number of CPUs: 1
LLC sets: 2048
LLC ways: 16
Off-chip DRAM Size: 4096 MB Channels: 1 Width: 64-bit Data Rate: 3200 MT/s

CPU 0 runs /home/ykhodke/ChampSim/dpc3_traces/server_027.champsimtrace.xz
CPU 0 EPI prefetcher
CPU 0 L1D next line prefetcher
Heartbeat CPU 0 instructions: 10000001 cycles: 3525689 heartbeat IPC: 2.83633 cumulative IPC: 2.83633 (Simulation time: 0 hr 0 min 18 sec) 
Heartbeat CPU 0 instructions: 20000001 cycles: 7055540 heartbeat IPC: 2.83298 cumulative IPC: 2.83465 (Simulation time: 0 hr 0 min 36 sec) 
Heartbeat CPU 0 instructions: 30000002 cycles: 10580619 heartbeat IPC: 2.83682 cumulative IPC: 2.83537 (Simulation time: 0 hr 0 min 54 sec) 
Heartbeat CPU 0 instructions: 40000000 cycles: 14110724 heartbeat IPC: 2.83278 cumulative IPC: 2.83472 (Simulation time: 0 hr 1 min 12 sec) 
Heartbeat CPU 0 instructions: 50000001 cycles: 17634705 heartbeat IPC: 2.8377 cumulative IPC: 2.83532 (Simulation time: 0 hr 1 min 30 sec) 

Warmup complete CPU 0 instructions: 50000001 cycles: 17634705 (Simulation time: 0 hr 1 min 30 sec) 

Heartbeat CPU 0 instructions: 60000002 cycles: 24475904 heartbeat IPC: 1.46173 cumulative IPC: 1.46173 (Simulation time: 0 hr 1 min 50 sec) 
Heartbeat CPU 0 instructions: 70000003 cycles: 31261209 heartbeat IPC: 1.47377 cumulative IPC: 1.46773 (Simulation time: 0 hr 2 min 10 sec) 
Heartbeat CPU 0 instructions: 80000002 cycles: 38073310 heartbeat IPC: 1.46798 cumulative IPC: 1.46781 (Simulation time: 0 hr 2 min 30 sec) 
Heartbeat CPU 0 instructions: 90000001 cycles: 44942624 heartbeat IPC: 1.45575 cumulative IPC: 1.46478 (Simulation time: 0 hr 2 min 51 sec) 
Heartbeat CPU 0 instructions: 100000002 cycles: 51694998 heartbeat IPC: 1.48096 cumulative IPC: 1.46799 (Simulation time: 0 hr 3 min 11 sec) 
Finished CPU 0 instructions: 50000001 cycles: 34060293 cumulative IPC: 1.46799 (Simulation time: 0 hr 3 min 11 sec) 

ChampSim completed all CPUs

Region of Interest Statistics

CPU 0 cumulative IPC: 1.46799 instructions: 50000001 cycles: 34060293
L1D TOTAL     ACCESS:   19884651  HIT:   18283093  MISS:    1601558
L1D LOAD      ACCESS:    6941327  HIT:    6249398  MISS:     691929
L1D RFO       ACCESS:    6288474  HIT:    6002633  MISS:     285841
L1D PREFETCH  ACCESS:    6654850  HIT:    6031062  MISS:     623788
L1D WRITEBACK ACCESS:          0  HIT:          0  MISS:          0
L1D PREFETCH  REQUESTED:    6986883  ISSUED:    6860128  USEFUL:     149418  USELESS:     474382
L1D AVERAGE MISS LATENCY: 23.6245 cycles
L1I TOTAL     ACCESS:   29120748  HIT:   25686714  MISS:    3434034
L1I LOAD      ACCESS:    9467803  HIT:    9408857  MISS:      58946
L1I RFO       ACCESS:          0  HIT:          0  MISS:          0
L1I PREFETCH  ACCESS:   19652945  HIT:   16277857  MISS:    3375088
L1I WRITEBACK ACCESS:          0  HIT:          0  MISS:          0
L1I PREFETCH  REQUESTED:   25037030  ISSUED:   25037030  USEFUL:    2759978  USELESS:     615134
L1I AVERAGE MISS LATENCY: 19.4088 cycles
L2C TOTAL     ACCESS:    6867577  HIT:    6052787  MISS:     814790
L2C LOAD      ACCESS:     687858  HIT:     559417  MISS:     128441
L2C RFO       ACCESS:     283720  HIT:     195926  MISS:      87794
L2C PREFETCH  ACCESS:    5336687  HIT:    4742912  MISS:     593775
L2C WRITEBACK ACCESS:     559312  HIT:     554532  MISS:       4780
L2C PREFETCH  REQUESTED:    5606303  ISSUED:    5596803  USEFUL:      12610  USELESS:     580460
L2C AVERAGE MISS LATENCY: 38.6138 cycles
LLC TOTAL     ACCESS:    2427438  HIT:    2391492  MISS:      35946
LLC LOAD      ACCESS:     128207  HIT:     124518  MISS:       3689
LLC RFO       ACCESS:      87793  HIT:      73875  MISS:      13918
LLC PREFETCH  ACCESS:    2065974  HIT:    2047846  MISS:      18128
LLC WRITEBACK ACCESS:     145464  HIT:     145253  MISS:        211
LLC PREFETCH  REQUESTED:          0  ISSUED:          0  USEFUL:       1349  USELESS:      15942
LLC AVERAGE MISS LATENCY: 181.243 cycles
Major fault: 0 Minor fault: 2481
CPU 0 L1I EPI prefetcher final stats
CPU 0 L1D next line prefetcher final stats

DRAM Statistics
 CHANNEL 0
 RQ ROW_BUFFER_HIT:      11388  ROW_BUFFER_MISS:      24336
 DBUS_CONGESTED:      23006
 WQ ROW_BUFFER_HIT:       1832  ROW_BUFFER_MISS:      14617  FULL:          0

 AVG_CONGESTED_CYCLE: 6

CPU 0 Branch Prediction Accuracy: 99.8082% MPKI: 0.35064 Average ROB Occupancy at Mispredict: 195.247

Branch types
NOT_BRANCH: 40857507 81.715%
BRANCH_DIRECT_JUMP: 526635 1.05327%
BRANCH_INDIRECT: 205902 0.411804%
BRANCH_CONDITIONAL: 6184049 12.3681%
BRANCH_DIRECT_CALL: 938468 1.87694%
BRANCH_INDIRECT_CALL: 174486 0.348972%
BRANCH_RETURN: 1112959 2.22592%
BRANCH_OTHER: 0 0%

