Initialize SIGNATURE TABLE
ST_SET: 1
ST_WAY: 256
ST_TAG_BIT: 16
ST_TAG_MASK: ffff

Initialize PATTERN TABLE
PT_SET: 512
PT_WAY: 4
SIG_DELTA_BIT: 7
C_SIG_BIT: 4
C_DELTA_BIT: 4

Initialize PREFETCH FILTER
FILTER_SET: 1024

*** ChampSim Multicore Out-of-Order Simulator ***

Warmup Instructions: 50000000
Simulation Instructions: 50000000
Number of CPUs: 1
LLC sets: 2048
LLC ways: 16
Off-chip DRAM Size: 4096 MB Channels: 1 Width: 64-bit Data Rate: 3200 MT/s

CPU 0 runs /home/ykhodke/ChampSim/dpc3_traces/server_030.champsimtrace.xz
LHT KB: 126.25
SCC KB: 1.56
Total KB: 127.81
CPU 0 L1D next line prefetcher
Heartbeat CPU 0 instructions: 10000003 cycles: 3511408 heartbeat IPC: 2.84786 cumulative IPC: 2.84786 (Simulation time: 0 hr 0 min 16 sec) 
Heartbeat CPU 0 instructions: 20000003 cycles: 7021109 heartbeat IPC: 2.84925 cumulative IPC: 2.84855 (Simulation time: 0 hr 0 min 32 sec) 
Heartbeat CPU 0 instructions: 30000000 cycles: 10529245 heartbeat IPC: 2.85052 cumulative IPC: 2.84921 (Simulation time: 0 hr 0 min 49 sec) 
Heartbeat CPU 0 instructions: 40000002 cycles: 14038097 heartbeat IPC: 2.84994 cumulative IPC: 2.84939 (Simulation time: 0 hr 1 min 5 sec) 
Heartbeat CPU 0 instructions: 50000002 cycles: 17549754 heartbeat IPC: 2.84766 cumulative IPC: 2.84904 (Simulation time: 0 hr 1 min 22 sec) 

Warmup complete CPU 0 instructions: 50000002 cycles: 17549754 (Simulation time: 0 hr 1 min 22 sec) 

Heartbeat CPU 0 instructions: 60000002 cycles: 24659712 heartbeat IPC: 1.40648 cumulative IPC: 1.40648 (Simulation time: 0 hr 1 min 39 sec) 
Heartbeat CPU 0 instructions: 70000000 cycles: 31784089 heartbeat IPC: 1.40363 cumulative IPC: 1.40505 (Simulation time: 0 hr 1 min 57 sec) 
Heartbeat CPU 0 instructions: 80000001 cycles: 38890550 heartbeat IPC: 1.40717 cumulative IPC: 1.40576 (Simulation time: 0 hr 2 min 15 sec) 
*** Reached end of trace for Core: 0 Repeating trace: /home/ykhodke/ChampSim/dpc3_traces/server_030.champsimtrace.xz
Heartbeat CPU 0 instructions: 90000002 cycles: 46008780 heartbeat IPC: 1.40484 cumulative IPC: 1.40553 (Simulation time: 0 hr 2 min 33 sec) 
Heartbeat CPU 0 instructions: 100000002 cycles: 53098612 heartbeat IPC: 1.41047 cumulative IPC: 1.40652 (Simulation time: 0 hr 2 min 51 sec) 
Finished CPU 0 instructions: 50000000 cycles: 35548858 cumulative IPC: 1.40652 (Simulation time: 0 hr 2 min 51 sec) 

ChampSim completed all CPUs

Region of Interest Statistics

CPU 0 cumulative IPC: 1.40652 instructions: 50000000 cycles: 35548858
L1D TOTAL     ACCESS:   19274120  HIT:   17197950  MISS:    2076170
L1D LOAD      ACCESS:    6820526  HIT:    5766382  MISS:    1054144
L1D RFO       ACCESS:    6175450  HIT:    5889849  MISS:     285601
L1D PREFETCH  ACCESS:    6278144  HIT:    5541719  MISS:     736425
L1D WRITEBACK ACCESS:          0  HIT:          0  MISS:          0
L1D PREFETCH  REQUESTED:    6872726  ISSUED:    6743202  USEFUL:     180680  USELESS:     555838
L1D AVERAGE MISS LATENCY: 18.9745 cycles
L1I TOTAL     ACCESS:   25625683  HIT:   20478364  MISS:    5147319
L1I LOAD      ACCESS:    9686457  HIT:    9180727  MISS:     505730
L1I RFO       ACCESS:          0  HIT:          0  MISS:          0
L1I PREFETCH  ACCESS:   15939226  HIT:   11297637  MISS:    4641589
L1I WRITEBACK ACCESS:          0  HIT:          0  MISS:          0
L1I PREFETCH  REQUESTED:   18425650  ISSUED:   18425650  USEFUL:    2623122  USELESS:    2018469
L1I AVERAGE MISS LATENCY: 14.8825 cycles
L2C TOTAL     ACCESS:   10012482  HIT:    9366435  MISS:     646047
L2C LOAD      ACCESS:     972960  HIT:     841321  MISS:     131639
L2C RFO       ACCESS:     283759  HIT:     224569  MISS:      59190
L2C PREFETCH  ACCESS:    8140218  HIT:    7688636  MISS:     451582
L2C WRITEBACK ACCESS:     615545  HIT:     611909  MISS:       3636
L2C PREFETCH  REQUESTED:    5745036  ISSUED:    5737587  USEFUL:      13242  USELESS:     437882
L2C AVERAGE MISS LATENCY: 33.5179 cycles
LLC TOTAL     ACCESS:    2000651  HIT:    1984341  MISS:      16310
LLC LOAD      ACCESS:     131554  HIT:     129107  MISS:       2447
LLC RFO       ACCESS:      59188  HIT:      57476  MISS:       1712
LLC PREFETCH  ACCESS:    1705788  HIT:    1693710  MISS:      12078
LLC WRITEBACK ACCESS:     104121  HIT:     104048  MISS:         73
LLC PREFETCH  REQUESTED:          0  ISSUED:          0  USEFUL:        796  USELESS:      10490
LLC AVERAGE MISS LATENCY: 144.66 cycles
Major fault: 0 Minor fault: 2053
CPU 0 L1D next line prefetcher final stats

DRAM Statistics
 CHANNEL 0
 RQ ROW_BUFFER_HIT:       5305  ROW_BUFFER_MISS:      10932
 DBUS_CONGESTED:       5070
 WQ ROW_BUFFER_HIT:        122  ROW_BUFFER_MISS:       1900  FULL:          0

 AVG_CONGESTED_CYCLE: 5

CPU 0 Branch Prediction Accuracy: 99.8445% MPKI: 0.29148 Average ROB Occupancy at Mispredict: 168.615

Branch types
NOT_BRANCH: 40628082 81.2562%
BRANCH_DIRECT_JUMP: 490941 0.981882%
BRANCH_INDIRECT: 175854 0.351708%
BRANCH_CONDITIONAL: 6321416 12.6428%
BRANCH_DIRECT_CALL: 1002072 2.00414%
BRANCH_INDIRECT_CALL: 189783 0.379566%
BRANCH_RETURN: 1191851 2.3837%
BRANCH_OTHER: 0 0%

