Initialize SIGNATURE TABLE
ST_SET: 1
ST_WAY: 256
ST_TAG_BIT: 16
ST_TAG_MASK: ffff

Initialize PATTERN TABLE
PT_SET: 512
PT_WAY: 4
SIG_DELTA_BIT: 7
C_SIG_BIT: 4
C_DELTA_BIT: 4

Initialize PREFETCH FILTER
FILTER_SET: 1024

*** ChampSim Multicore Out-of-Order Simulator ***

Warmup Instructions: 50000000
Simulation Instructions: 50000000
Number of CPUs: 1
LLC sets: 2048
LLC ways: 16
Off-chip DRAM Size: 4096 MB Channels: 1 Width: 64-bit Data Rate: 3200 MT/s

CPU 0 runs /home/ykhodke/ChampSim/dpc3_traces/server_001.champsimtrace.xz
CPU 0 L1D next line prefetcher
Heartbeat CPU 0 instructions: 10000002 cycles: 3155610 heartbeat IPC: 3.16896 cumulative IPC: 3.16896 (Simulation time: 0 hr 0 min 12 sec) 
Heartbeat CPU 0 instructions: 20000000 cycles: 6370965 heartbeat IPC: 3.11008 cumulative IPC: 3.13924 (Simulation time: 0 hr 0 min 25 sec) 
Heartbeat CPU 0 instructions: 30000003 cycles: 9557904 heartbeat IPC: 3.13781 cumulative IPC: 3.13876 (Simulation time: 0 hr 0 min 37 sec) 
Heartbeat CPU 0 instructions: 40000002 cycles: 12765986 heartbeat IPC: 3.11713 cumulative IPC: 3.13333 (Simulation time: 0 hr 0 min 50 sec) 
Heartbeat CPU 0 instructions: 50000003 cycles: 15985698 heartbeat IPC: 3.10587 cumulative IPC: 3.1278 (Simulation time: 0 hr 1 min 2 sec) 

Warmup complete CPU 0 instructions: 50000003 cycles: 15985698 (Simulation time: 0 hr 1 min 2 sec) 

Heartbeat CPU 0 instructions: 60000000 cycles: 24479023 heartbeat IPC: 1.17739 cumulative IPC: 1.17739 (Simulation time: 0 hr 1 min 14 sec) 
Heartbeat CPU 0 instructions: 70000001 cycles: 32313331 heartbeat IPC: 1.27644 cumulative IPC: 1.22492 (Simulation time: 0 hr 1 min 26 sec) 
Heartbeat CPU 0 instructions: 80000002 cycles: 40336306 heartbeat IPC: 1.24642 cumulative IPC: 1.232 (Simulation time: 0 hr 1 min 38 sec) 
Heartbeat CPU 0 instructions: 90000002 cycles: 48729128 heartbeat IPC: 1.19149 cumulative IPC: 1.22162 (Simulation time: 0 hr 1 min 51 sec) 
Heartbeat CPU 0 instructions: 100000003 cycles: 56619484 heartbeat IPC: 1.26737 cumulative IPC: 1.2305 (Simulation time: 0 hr 2 min 2 sec) 
Finished CPU 0 instructions: 50000000 cycles: 40633786 cumulative IPC: 1.2305 (Simulation time: 0 hr 2 min 2 sec) 

ChampSim completed all CPUs

Region of Interest Statistics

CPU 0 cumulative IPC: 1.2305 instructions: 50000000 cycles: 40633786
L1D TOTAL     ACCESS:   18101230  HIT:   17589844  MISS:     511386
L1D LOAD      ACCESS:    6678138  HIT:    6478207  MISS:     199931
L1D RFO       ACCESS:    5071814  HIT:    4989146  MISS:      82668
L1D PREFETCH  ACCESS:    6351278  HIT:    6122491  MISS:     228787
L1D WRITEBACK ACCESS:          0  HIT:          0  MISS:          0
L1D PREFETCH  REQUESTED:    6706148  ISSUED:    6520137  USEFUL:     136808  USELESS:      92106
L1D AVERAGE MISS LATENCY: 90.7913 cycles
L1I TOTAL     ACCESS:    8203862  HIT:    7701951  MISS:     501911
L1I LOAD      ACCESS:    8203862  HIT:    7701951  MISS:     501911
L1I RFO       ACCESS:          0  HIT:          0  MISS:          0
L1I PREFETCH  ACCESS:          0  HIT:          0  MISS:          0
L1I WRITEBACK ACCESS:          0  HIT:          0  MISS:          0
L1I PREFETCH  REQUESTED:          0  ISSUED:          0  USEFUL:          0  USELESS:          0
L1I AVERAGE MISS LATENCY: 31.7904 cycles
L2C TOTAL     ACCESS:    1809970  HIT:    1348759  MISS:     461211
L2C LOAD      ACCESS:     664917  HIT:     452781  MISS:     212136
L2C RFO       ACCESS:      81049  HIT:      10506  MISS:      70543
L2C PREFETCH  ACCESS:     856138  HIT:     677993  MISS:     178145
L2C WRITEBACK ACCESS:     207866  HIT:     207479  MISS:        387
L2C PREFETCH  REQUESTED:    1599610  ISSUED:    1599136  USEFUL:      26099  USELESS:     150208
L2C AVERAGE MISS LATENCY: 108.089 cycles
LLC TOTAL     ACCESS:    1246260  HIT:     911857  MISS:     334403
LLC LOAD      ACCESS:     206700  HIT:     153545  MISS:      53155
LLC RFO       ACCESS:      70541  HIT:       6795  MISS:      63746
LLC PREFETCH  ACCESS:     801783  HIT:     584653  MISS:     217130
LLC WRITEBACK ACCESS:     167236  HIT:     166864  MISS:        372
LLC PREFETCH  REQUESTED:          0  ISSUED:          0  USEFUL:      43616  USELESS:     170424
LLC AVERAGE MISS LATENCY: 200.171 cycles
Major fault: 0 Minor fault: 16697
CPU 0 L1D next line prefetcher final stats

DRAM Statistics
 CHANNEL 0
 RQ ROW_BUFFER_HIT:      96078  ROW_BUFFER_MISS:     237940
 DBUS_CONGESTED:     220146
 WQ ROW_BUFFER_HIT:      37109  ROW_BUFFER_MISS:     122299  FULL:          0

 AVG_CONGESTED_CYCLE: 6

CPU 0 Branch Prediction Accuracy: 99.5889% MPKI: 0.70108 Average ROB Occupancy at Mispredict: 84.6952

Branch types
NOT_BRANCH: 41473571 82.9471%
BRANCH_DIRECT_JUMP: 347941 0.695882%
BRANCH_INDIRECT: 148212 0.296424%
BRANCH_CONDITIONAL: 6817276 13.6346%
BRANCH_DIRECT_CALL: 570724 1.14145%
BRANCH_INDIRECT_CALL: 25133 0.050266%
BRANCH_RETURN: 617123 1.23425%
BRANCH_OTHER: 0 0%

