Initialize SIGNATURE TABLE
ST_SET: 1
ST_WAY: 256
ST_TAG_BIT: 16
ST_TAG_MASK: ffff

Initialize PATTERN TABLE
PT_SET: 512
PT_WAY: 4
SIG_DELTA_BIT: 7
C_SIG_BIT: 4
C_DELTA_BIT: 4

Initialize PREFETCH FILTER
FILTER_SET: 1024

*** ChampSim Multicore Out-of-Order Simulator ***

Warmup Instructions: 50000000
Simulation Instructions: 50000000
Number of CPUs: 1
LLC sets: 2048
LLC ways: 16
Off-chip DRAM Size: 4096 MB Channels: 1 Width: 64-bit Data Rate: 3200 MT/s

CPU 0 runs /home/ykhodke/ChampSim/dpc3_traces/server_023.champsimtrace.xz
L1I D-JOLT instruction prefetcher has been constructed!
CPU 0 L1D next line prefetcher
Heartbeat CPU 0 instructions: 10000000 cycles: 3498494 heartbeat IPC: 2.85837 cumulative IPC: 2.85837 (Simulation time: 0 hr 0 min 14 sec) 
Heartbeat CPU 0 instructions: 20000000 cycles: 6996456 heartbeat IPC: 2.85881 cumulative IPC: 2.85859 (Simulation time: 0 hr 0 min 29 sec) 
Heartbeat CPU 0 instructions: 30000001 cycles: 10487895 heartbeat IPC: 2.86415 cumulative IPC: 2.86044 (Simulation time: 0 hr 0 min 44 sec) 
Heartbeat CPU 0 instructions: 40000003 cycles: 13985575 heartbeat IPC: 2.85904 cumulative IPC: 2.86009 (Simulation time: 0 hr 0 min 58 sec) 
Heartbeat CPU 0 instructions: 50000001 cycles: 17484699 heartbeat IPC: 2.85786 cumulative IPC: 2.85964 (Simulation time: 0 hr 1 min 13 sec) 

Warmup complete CPU 0 instructions: 50000001 cycles: 17484699 (Simulation time: 0 hr 1 min 13 sec) 

Heartbeat CPU 0 instructions: 60000002 cycles: 24213391 heartbeat IPC: 1.48617 cumulative IPC: 1.48617 (Simulation time: 0 hr 1 min 28 sec) 
Heartbeat CPU 0 instructions: 70000002 cycles: 31152719 heartbeat IPC: 1.44106 cumulative IPC: 1.46327 (Simulation time: 0 hr 1 min 44 sec) 
Heartbeat CPU 0 instructions: 80000000 cycles: 37999213 heartbeat IPC: 1.4606 cumulative IPC: 1.46238 (Simulation time: 0 hr 1 min 59 sec) 
Heartbeat CPU 0 instructions: 90000000 cycles: 44893075 heartbeat IPC: 1.45057 cumulative IPC: 1.45941 (Simulation time: 0 hr 2 min 14 sec) 
Heartbeat CPU 0 instructions: 100000001 cycles: 51712266 heartbeat IPC: 1.46645 cumulative IPC: 1.46081 (Simulation time: 0 hr 2 min 29 sec) 
Finished CPU 0 instructions: 50000000 cycles: 34227567 cumulative IPC: 1.46081 (Simulation time: 0 hr 2 min 29 sec) 

ChampSim completed all CPUs

Region of Interest Statistics

CPU 0 cumulative IPC: 1.46081 instructions: 50000000 cycles: 34227567
L1D TOTAL     ACCESS:   19336464  HIT:   17869709  MISS:    1466755
L1D LOAD      ACCESS:    6837781  HIT:    6177115  MISS:     660666
L1D RFO       ACCESS:    5983115  HIT:    5721894  MISS:     261221
L1D PREFETCH  ACCESS:    6515568  HIT:    5970700  MISS:     544868
L1D WRITEBACK ACCESS:          0  HIT:          0  MISS:          0
L1D PREFETCH  REQUESTED:    6888992  ISSUED:    6767380  USEFUL:     130296  USELESS:     414579
L1D AVERAGE MISS LATENCY: 24.7519 cycles
L1I TOTAL     ACCESS:   15342826  HIT:   12461494  MISS:    2881332
L1I LOAD      ACCESS:    9445881  HIT:    9399185  MISS:      46696
L1I RFO       ACCESS:          0  HIT:          0  MISS:          0
L1I PREFETCH  ACCESS:    5896945  HIT:    3062309  MISS:    2834636
L1I WRITEBACK ACCESS:          0  HIT:          0  MISS:          0
L1I PREFETCH  REQUESTED:    6218084  ISSUED:    6137631  USEFUL:    2400695  USELESS:     433953
L1I AVERAGE MISS LATENCY: 19.4486 cycles
L2C TOTAL     ACCESS:    6067119  HIT:    5309663  MISS:     757456
L2C LOAD      ACCESS:     642587  HIT:     512308  MISS:     130279
L2C RFO       ACCESS:     259426  HIT:     179332  MISS:      80094
L2C PREFETCH  ACCESS:    4665875  HIT:    4123555  MISS:     542320
L2C WRITEBACK ACCESS:     499231  HIT:     494468  MISS:       4763
L2C PREFETCH  REQUESTED:    4191668  ISSUED:    4186005  USEFUL:      13340  USELESS:     529172
L2C AVERAGE MISS LATENCY: 40.6797 cycles
LLC TOTAL     ACCESS:    2041529  HIT:    1991723  MISS:      49806
LLC LOAD      ACCESS:     130142  HIT:     124054  MISS:       6088
LLC RFO       ACCESS:      80090  HIT:      62135  MISS:      17955
LLC PREFETCH  ACCESS:    1692497  HIT:    1667043  MISS:      25454
LLC WRITEBACK ACCESS:     138800  HIT:     138491  MISS:        309
LLC PREFETCH  REQUESTED:          0  ISSUED:          0  USEFUL:       2310  USELESS:      23456
LLC AVERAGE MISS LATENCY: 183.064 cycles
Major fault: 0 Minor fault: 2775
CPU 0 L1D next line prefetcher final stats

DRAM Statistics
 CHANNEL 0
 RQ ROW_BUFFER_HIT:      15079  ROW_BUFFER_MISS:      34408
 DBUS_CONGESTED:      31492
 WQ ROW_BUFFER_HIT:       2411  ROW_BUFFER_MISS:      18830  FULL:          0

 AVG_CONGESTED_CYCLE: 6

CPU 0 Branch Prediction Accuracy: 99.6798% MPKI: 0.58608 Average ROB Occupancy at Mispredict: 147.268

Branch types
NOT_BRANCH: 40848361 81.6967%
BRANCH_DIRECT_JUMP: 548373 1.09675%
BRANCH_INDIRECT: 189802 0.379604%
BRANCH_CONDITIONAL: 6372772 12.7455%
BRANCH_DIRECT_CALL: 862207 1.72441%
BRANCH_INDIRECT_CALL: 158149 0.316298%
BRANCH_RETURN: 1020345 2.04069%
BRANCH_OTHER: 0 0%

