Initialize SIGNATURE TABLE
ST_SET: 1
ST_WAY: 256
ST_TAG_BIT: 16
ST_TAG_MASK: ffff

Initialize PATTERN TABLE
PT_SET: 512
PT_WAY: 4
SIG_DELTA_BIT: 7
C_SIG_BIT: 4
C_DELTA_BIT: 4

Initialize PREFETCH FILTER
FILTER_SET: 1024

*** ChampSim Multicore Out-of-Order Simulator ***

Warmup Instructions: 50000000
Simulation Instructions: 50000000
Number of CPUs: 1
LLC sets: 2048
LLC ways: 16
Off-chip DRAM Size: 4096 MB Channels: 1 Width: 64-bit Data Rate: 3200 MT/s

CPU 0 runs /home/ykhodke/ChampSim/dpc3_traces/server_004.champsimtrace.xz
CPU 0 L1D next line prefetcher
Heartbeat CPU 0 instructions: 10000002 cycles: 3231835 heartbeat IPC: 3.09422 cumulative IPC: 3.09422 (Simulation time: 0 hr 0 min 13 sec) 
Heartbeat CPU 0 instructions: 20000002 cycles: 6569627 heartbeat IPC: 2.99599 cumulative IPC: 3.04431 (Simulation time: 0 hr 0 min 26 sec) 
Heartbeat CPU 0 instructions: 30000000 cycles: 11687050 heartbeat IPC: 1.95411 cumulative IPC: 2.56694 (Simulation time: 0 hr 0 min 43 sec) 
Heartbeat CPU 0 instructions: 40000003 cycles: 15436875 heartbeat IPC: 2.66679 cumulative IPC: 2.5912 (Simulation time: 0 hr 0 min 58 sec) 
Heartbeat CPU 0 instructions: 50000003 cycles: 18668153 heartbeat IPC: 3.09475 cumulative IPC: 2.67836 (Simulation time: 0 hr 1 min 11 sec) 

Warmup complete CPU 0 instructions: 50000003 cycles: 18668153 (Simulation time: 0 hr 1 min 11 sec) 

Heartbeat CPU 0 instructions: 60000002 cycles: 30876158 heartbeat IPC: 0.819135 cumulative IPC: 0.819135 (Simulation time: 0 hr 1 min 23 sec) 
Heartbeat CPU 0 instructions: 70000000 cycles: 42757089 heartbeat IPC: 0.841685 cumulative IPC: 0.830257 (Simulation time: 0 hr 1 min 36 sec) 
Heartbeat CPU 0 instructions: 80000001 cycles: 65038101 heartbeat IPC: 0.448813 cumulative IPC: 0.646971 (Simulation time: 0 hr 1 min 57 sec) 
Heartbeat CPU 0 instructions: 90000003 cycles: 80979036 heartbeat IPC: 0.627316 cumulative IPC: 0.641942 (Simulation time: 0 hr 2 min 12 sec) 
Heartbeat CPU 0 instructions: 100000003 cycles: 93356204 heartbeat IPC: 0.807939 cumulative IPC: 0.669451 (Simulation time: 0 hr 2 min 25 sec) 
Finished CPU 0 instructions: 50000000 cycles: 74688051 cumulative IPC: 0.669451 (Simulation time: 0 hr 2 min 25 sec) 

ChampSim completed all CPUs

Region of Interest Statistics

CPU 0 cumulative IPC: 0.669451 instructions: 50000000 cycles: 74688051
L1D TOTAL     ACCESS:   22432245  HIT:   18360138  MISS:    4072107
L1D LOAD      ACCESS:    8974806  HIT:    6964064  MISS:    2010742
L1D RFO       ACCESS:    4681429  HIT:    4574409  MISS:     107020
L1D PREFETCH  ACCESS:    8776010  HIT:    6821665  MISS:    1954345
L1D WRITEBACK ACCESS:          0  HIT:          0  MISS:          0
L1D PREFETCH  REQUESTED:    9011966  ISSUED:    8919134  USEFUL:     114180  USELESS:    1840160
L1D AVERAGE MISS LATENCY: 22.4682 cycles
L1I TOTAL     ACCESS:   10613961  HIT:    9590917  MISS:    1023044
L1I LOAD      ACCESS:   10613961  HIT:    9590917  MISS:    1023044
L1I RFO       ACCESS:          0  HIT:          0  MISS:          0
L1I PREFETCH  ACCESS:          0  HIT:          0  MISS:          0
L1I WRITEBACK ACCESS:          0  HIT:          0  MISS:          0
L1I PREFETCH  REQUESTED:          0  ISSUED:          0  USEFUL:          0  USELESS:          0
L1I AVERAGE MISS LATENCY: 34.6733 cycles
L2C TOTAL     ACCESS:    6836999  HIT:    5856985  MISS:     980014
L2C LOAD      ACCESS:    3018307  HIT:    2358768  MISS:     659539
L2C RFO       ACCESS:     105817  HIT:      58655  MISS:      47162
L2C PREFETCH  ACCESS:    3467827  HIT:    3195103  MISS:     272724
L2C WRITEBACK ACCESS:     245048  HIT:     244459  MISS:        589
L2C PREFETCH  REQUESTED:    5940812  ISSUED:    5940520  USEFUL:      45528  USELESS:     227309
L2C AVERAGE MISS LATENCY: 51.5044 cycles
LLC TOTAL     ACCESS:    2711444  HIT:    2454751  MISS:     256693
LLC LOAD      ACCESS:     639059  HIT:     567810  MISS:      71249
LLC RFO       ACCESS:      47158  HIT:      31253  MISS:      15905
LLC PREFETCH  ACCESS:    1889460  HIT:    1720488  MISS:     168972
LLC WRITEBACK ACCESS:     135767  HIT:     135200  MISS:        567
LLC PREFETCH  REQUESTED:          0  ISSUED:          0  USEFUL:      38909  USELESS:     130085
LLC AVERAGE MISS LATENCY: 161.34 cycles
Major fault: 0 Minor fault: 7592
CPU 0 L1D next line prefetcher final stats

DRAM Statistics
 CHANNEL 0
 RQ ROW_BUFFER_HIT:      55021  ROW_BUFFER_MISS:     201093
 DBUS_CONGESTED:      96524
 WQ ROW_BUFFER_HIT:      11419  ROW_BUFFER_MISS:      44539  FULL:          0

 AVG_CONGESTED_CYCLE: 5

CPU 0 Branch Prediction Accuracy: 98.1603% MPKI: 3.89124 Average ROB Occupancy at Mispredict: 47.8374

Branch types
NOT_BRANCH: 39423755 78.8475%
BRANCH_DIRECT_JUMP: 551642 1.10328%
BRANCH_INDIRECT: 139368 0.278736%
BRANCH_CONDITIONAL: 7920858 15.8417%
BRANCH_DIRECT_CALL: 776072 1.55214%
BRANCH_INDIRECT_CALL: 194644 0.389288%
BRANCH_RETURN: 993311 1.98662%
BRANCH_OTHER: 0 0%

