Initialize SIGNATURE TABLE
ST_SET: 1
ST_WAY: 256
ST_TAG_BIT: 16
ST_TAG_MASK: ffff

Initialize PATTERN TABLE
PT_SET: 512
PT_WAY: 4
SIG_DELTA_BIT: 7
C_SIG_BIT: 4
C_DELTA_BIT: 4

Initialize PREFETCH FILTER
FILTER_SET: 1024

*** ChampSim Multicore Out-of-Order Simulator ***

Warmup Instructions: 50000000
Simulation Instructions: 50000000
Number of CPUs: 1
LLC sets: 2048
LLC ways: 16
Off-chip DRAM Size: 4096 MB Channels: 1 Width: 64-bit Data Rate: 3200 MT/s

CPU 0 runs /home/ykhodke/ChampSim/dpc3_traces/server_004.champsimtrace.xz
LHT KB: 126.25
SCC KB: 1.56
Total KB: 127.81
CPU 0 L1D next line prefetcher
Heartbeat CPU 0 instructions: 10000002 cycles: 3233576 heartbeat IPC: 3.09255 cumulative IPC: 3.09255 (Simulation time: 0 hr 0 min 14 sec) 
Heartbeat CPU 0 instructions: 20000002 cycles: 6572445 heartbeat IPC: 2.99503 cumulative IPC: 3.04301 (Simulation time: 0 hr 0 min 29 sec) 
Heartbeat CPU 0 instructions: 30000000 cycles: 11690443 heartbeat IPC: 1.95389 cumulative IPC: 2.5662 (Simulation time: 0 hr 0 min 47 sec) 
Heartbeat CPU 0 instructions: 40000003 cycles: 15442607 heartbeat IPC: 2.66513 cumulative IPC: 2.59024 (Simulation time: 0 hr 1 min 2 sec) 
Heartbeat CPU 0 instructions: 50000003 cycles: 18675459 heartbeat IPC: 3.09324 cumulative IPC: 2.67731 (Simulation time: 0 hr 1 min 17 sec) 

Warmup complete CPU 0 instructions: 50000003 cycles: 18675459 (Simulation time: 0 hr 1 min 17 sec) 

Heartbeat CPU 0 instructions: 60000002 cycles: 27472332 heartbeat IPC: 1.13677 cumulative IPC: 1.13677 (Simulation time: 0 hr 1 min 32 sec) 
Heartbeat CPU 0 instructions: 70000000 cycles: 35670646 heartbeat IPC: 1.21976 cumulative IPC: 1.1768 (Simulation time: 0 hr 1 min 48 sec) 
Heartbeat CPU 0 instructions: 80000001 cycles: 56627151 heartbeat IPC: 0.477179 cumulative IPC: 0.790479 (Simulation time: 0 hr 2 min 11 sec) 
Heartbeat CPU 0 instructions: 90000003 cycles: 71491617 heartbeat IPC: 0.672745 cumulative IPC: 0.757344 (Simulation time: 0 hr 2 min 29 sec) 
Heartbeat CPU 0 instructions: 100000003 cycles: 80289692 heartbeat IPC: 1.13661 cumulative IPC: 0.811501 (Simulation time: 0 hr 2 min 44 sec) 
Finished CPU 0 instructions: 50000000 cycles: 61614233 cumulative IPC: 0.811501 (Simulation time: 0 hr 2 min 44 sec) 

ChampSim completed all CPUs

Region of Interest Statistics

CPU 0 cumulative IPC: 0.811501 instructions: 50000000 cycles: 61614233
L1D TOTAL     ACCESS:   21677986  HIT:   17606783  MISS:    4071203
L1D LOAD      ACCESS:    8622256  HIT:    6604066  MISS:    2018190
L1D RFO       ACCESS:    4644017  HIT:    4537052  MISS:     106965
L1D PREFETCH  ACCESS:    8411713  HIT:    6465665  MISS:    1946048
L1D WRITEBACK ACCESS:          0  HIT:          0  MISS:          0
L1D PREFETCH  REQUESTED:    8657876  ISSUED:    8568403  USEFUL:     106361  USELESS:    1839679
L1D AVERAGE MISS LATENCY: 23.1352 cycles
L1I TOTAL     ACCESS:   20766140  HIT:   18684850  MISS:    2081290
L1I LOAD      ACCESS:   10690874  HIT:   10453007  MISS:     237867
L1I RFO       ACCESS:          0  HIT:          0  MISS:          0
L1I PREFETCH  ACCESS:   10075266  HIT:    8231843  MISS:    1843423
L1I WRITEBACK ACCESS:          0  HIT:          0  MISS:          0
L1I PREFETCH  REQUESTED:   13197629  ISSUED:   13197629  USEFUL:     921713  USELESS:     921629
L1I AVERAGE MISS LATENCY: 28.1568 cycles
L2C TOTAL     ACCESS:    7971877  HIT:    6864312  MISS:    1107565
L2C LOAD      ACCESS:    2053645  HIT:    1815271  MISS:     238374
L2C RFO       ACCESS:     105672  HIT:      55606  MISS:      50066
L2C PREFETCH  ACCESS:    5567522  HIT:    4750835  MISS:     816687
L2C WRITEBACK ACCESS:     245038  HIT:     242600  MISS:       2438
L2C PREFETCH  REQUESTED:    6424862  ISSUED:    6422312  USEFUL:      26532  USELESS:     789491
L2C AVERAGE MISS LATENCY: 60.2796 cycles
LLC TOTAL     ACCESS:    2402663  HIT:    2160765  MISS:     241898
LLC LOAD      ACCESS:     237967  HIT:     199762  MISS:      38205
LLC RFO       ACCESS:      50063  HIT:      34225  MISS:      15838
LLC PREFETCH  ACCESS:    1970979  HIT:    1783331  MISS:     187648
LLC WRITEBACK ACCESS:     143654  HIT:     143447  MISS:        207
LLC PREFETCH  REQUESTED:          0  ISSUED:          0  USEFUL:      14071  USELESS:     171841
LLC AVERAGE MISS LATENCY: 177.607 cycles
Major fault: 0 Minor fault: 7614
CPU 0 L1D next line prefetcher final stats

DRAM Statistics
 CHANNEL 0
 RQ ROW_BUFFER_HIT:      51285  ROW_BUFFER_MISS:     190378
 DBUS_CONGESTED:     106484
 WQ ROW_BUFFER_HIT:      10624  ROW_BUFFER_MISS:      44632  FULL:          0

 AVG_CONGESTED_CYCLE: 5

CPU 0 Branch Prediction Accuracy: 98.1603% MPKI: 3.89124 Average ROB Occupancy at Mispredict: 65.0124

Branch types
NOT_BRANCH: 39423771 78.8475%
BRANCH_DIRECT_JUMP: 551642 1.10328%
BRANCH_INDIRECT: 139368 0.278736%
BRANCH_CONDITIONAL: 7920862 15.8417%
BRANCH_DIRECT_CALL: 776072 1.55214%
BRANCH_INDIRECT_CALL: 194644 0.389288%
BRANCH_RETURN: 993311 1.98662%
BRANCH_OTHER: 0 0%

