Initialize SIGNATURE TABLE
ST_SET: 1
ST_WAY: 256
ST_TAG_BIT: 16
ST_TAG_MASK: ffff

Initialize PATTERN TABLE
PT_SET: 512
PT_WAY: 4
SIG_DELTA_BIT: 7
C_SIG_BIT: 4
C_DELTA_BIT: 4

Initialize PREFETCH FILTER
FILTER_SET: 1024

*** ChampSim Multicore Out-of-Order Simulator ***

Warmup Instructions: 50000000
Simulation Instructions: 50000000
Number of CPUs: 1
LLC sets: 2048
LLC ways: 16
Off-chip DRAM Size: 4096 MB Channels: 1 Width: 64-bit Data Rate: 3200 MT/s

CPU 0 runs /home/ykhodke/ChampSim/dpc3_traces/server_009.champsimtrace.xz
CPU 0 EPI prefetcher
CPU 0 L1D next line prefetcher
Heartbeat CPU 0 instructions: 10000003 cycles: 3199742 heartbeat IPC: 3.12525 cumulative IPC: 3.12525 (Simulation time: 0 hr 0 min 17 sec) 
Heartbeat CPU 0 instructions: 20000001 cycles: 6392376 heartbeat IPC: 3.13221 cumulative IPC: 3.12873 (Simulation time: 0 hr 0 min 34 sec) 
Heartbeat CPU 0 instructions: 30000002 cycles: 9599545 heartbeat IPC: 3.11802 cumulative IPC: 3.12515 (Simulation time: 0 hr 0 min 50 sec) 
Heartbeat CPU 0 instructions: 40000003 cycles: 12803227 heartbeat IPC: 3.12141 cumulative IPC: 3.12421 (Simulation time: 0 hr 1 min 7 sec) 
Heartbeat CPU 0 instructions: 50000000 cycles: 16063158 heartbeat IPC: 3.06755 cumulative IPC: 3.11271 (Simulation time: 0 hr 1 min 25 sec) 

Warmup complete CPU 0 instructions: 50000004 cycles: 16063159 (Simulation time: 0 hr 1 min 25 sec) 

Heartbeat CPU 0 instructions: 60000002 cycles: 31595170 heartbeat IPC: 0.643832 cumulative IPC: 0.643831 (Simulation time: 0 hr 1 min 47 sec) 
Heartbeat CPU 0 instructions: 70000003 cycles: 52543275 heartbeat IPC: 0.47737 cumulative IPC: 0.548244 (Simulation time: 0 hr 2 min 14 sec) 
Heartbeat CPU 0 instructions: 80000000 cycles: 59532900 heartbeat IPC: 1.43069 cumulative IPC: 0.690135 (Simulation time: 0 hr 2 min 31 sec) 
Heartbeat CPU 0 instructions: 90000001 cycles: 66687085 heartbeat IPC: 1.39778 cumulative IPC: 0.79014 (Simulation time: 0 hr 2 min 48 sec) 
Heartbeat CPU 0 instructions: 100000003 cycles: 73710342 heartbeat IPC: 1.42384 cumulative IPC: 0.867345 (Simulation time: 0 hr 3 min 4 sec) 
Finished CPU 0 instructions: 50000003 cycles: 57647184 cumulative IPC: 0.867345 (Simulation time: 0 hr 3 min 4 sec) 

ChampSim completed all CPUs

Region of Interest Statistics

CPU 0 cumulative IPC: 0.867345 instructions: 50000003 cycles: 57647184
L1D TOTAL     ACCESS:   21577870  HIT:   16998368  MISS:    4579502
L1D LOAD      ACCESS:    8605995  HIT:    6325296  MISS:    2280699
L1D RFO       ACCESS:    4578876  HIT:    4474476  MISS:     104400
L1D PREFETCH  ACCESS:    8392999  HIT:    6198596  MISS:    2194403
L1D WRITEBACK ACCESS:          0  HIT:          0  MISS:          0
L1D PREFETCH  REQUESTED:    8638243  ISSUED:    8541378  USEFUL:     105923  USELESS:    2088478
L1D AVERAGE MISS LATENCY: 20.2883 cycles
L1I TOTAL     ACCESS:   40623134  HIT:   39172414  MISS:    1450720
L1I LOAD      ACCESS:   10772951  HIT:   10730261  MISS:      42690
L1I RFO       ACCESS:          0  HIT:          0  MISS:          0
L1I PREFETCH  ACCESS:   29850183  HIT:   28442153  MISS:    1408030
L1I WRITEBACK ACCESS:          0  HIT:          0  MISS:          0
L1I PREFETCH  REQUESTED:   41678574  ISSUED:   41678574  USEFUL:    1051478  USELESS:     356599
L1I AVERAGE MISS LATENCY: 33.6453 cycles
L2C TOTAL     ACCESS:    7630503  HIT:    6588148  MISS:    1042355
L2C LOAD      ACCESS:    2281990  HIT:    2074090  MISS:     207900
L2C RFO       ACCESS:     103482  HIT:      63876  MISS:      39606
L2C PREFETCH  ACCESS:    4988162  HIT:    4194453  MISS:     793709
L2C WRITEBACK ACCESS:     256869  HIT:     255729  MISS:       1140
L2C PREFETCH  REQUESTED:    7318317  ISSUED:    7313294  USEFUL:      20352  USELESS:     771970
L2C AVERAGE MISS LATENCY: 48.2734 cycles
LLC TOTAL     ACCESS:    2284293  HIT:    2150146  MISS:     134147
LLC LOAD      ACCESS:     207623  HIT:     189599  MISS:      18024
LLC RFO       ACCESS:      39603  HIT:      30903  MISS:       8700
LLC PREFETCH  ACCESS:    1901348  HIT:    1794150  MISS:     107198
LLC WRITEBACK ACCESS:     135719  HIT:     135494  MISS:        225
LLC PREFETCH  REQUESTED:          0  ISSUED:          0  USEFUL:       9688  USELESS:      94409
LLC AVERAGE MISS LATENCY: 176.63 cycles
Major fault: 0 Minor fault: 6358
CPU 0 L1I EPI prefetcher final stats
CPU 0 L1D next line prefetcher final stats

DRAM Statistics
 CHANNEL 0
 RQ ROW_BUFFER_HIT:      26509  ROW_BUFFER_MISS:     107394
 DBUS_CONGESTED:      60622
 WQ ROW_BUFFER_HIT:       8727  ROW_BUFFER_MISS:      37827  FULL:          0

 AVG_CONGESTED_CYCLE: 5

CPU 0 Branch Prediction Accuracy: 99.4713% MPKI: 1.11484 Average ROB Occupancy at Mispredict: 122.252

Branch types
NOT_BRANCH: 39456615 78.9132%
BRANCH_DIRECT_JUMP: 445350 0.8907%
BRANCH_INDIRECT: 131149 0.262298%
BRANCH_CONDITIONAL: 8130196 16.2604%
BRANCH_DIRECT_CALL: 732485 1.46497%
BRANCH_INDIRECT_CALL: 172369 0.344738%
BRANCH_RETURN: 931558 1.86312%
BRANCH_OTHER: 0 0%

