Initialize SIGNATURE TABLE
ST_SET: 1
ST_WAY: 256
ST_TAG_BIT: 16
ST_TAG_MASK: ffff

Initialize PATTERN TABLE
PT_SET: 512
PT_WAY: 4
SIG_DELTA_BIT: 7
C_SIG_BIT: 4
C_DELTA_BIT: 4

Initialize PREFETCH FILTER
FILTER_SET: 1024

*** ChampSim Multicore Out-of-Order Simulator ***

Warmup Instructions: 50000000
Simulation Instructions: 50000000
Number of CPUs: 1
LLC sets: 2048
LLC ways: 16
Off-chip DRAM Size: 4096 MB Channels: 1 Width: 64-bit Data Rate: 3200 MT/s

CPU 0 runs /home/ykhodke/ChampSim/dpc3_traces/server_013.champsimtrace.xz
CPU 0 EPI prefetcher
CPU 0 L1D next line prefetcher
Heartbeat CPU 0 instructions: 10000000 cycles: 3215298 heartbeat IPC: 3.11013 cumulative IPC: 3.11013 (Simulation time: 0 hr 0 min 17 sec) 
Heartbeat CPU 0 instructions: 20000001 cycles: 6419704 heartbeat IPC: 3.1207 cumulative IPC: 3.11541 (Simulation time: 0 hr 0 min 34 sec) 
Heartbeat CPU 0 instructions: 30000002 cycles: 9627726 heartbeat IPC: 3.11719 cumulative IPC: 3.116 (Simulation time: 0 hr 0 min 51 sec) 
Heartbeat CPU 0 instructions: 40000002 cycles: 12831128 heartbeat IPC: 3.12168 cumulative IPC: 3.11742 (Simulation time: 0 hr 1 min 8 sec) 
Heartbeat CPU 0 instructions: 50000000 cycles: 16035203 heartbeat IPC: 3.12102 cumulative IPC: 3.11814 (Simulation time: 0 hr 1 min 25 sec) 

Warmup complete CPU 0 instructions: 50000004 cycles: 16035204 (Simulation time: 0 hr 1 min 25 sec) 

Heartbeat CPU 0 instructions: 60000000 cycles: 23464705 heartbeat IPC: 1.34599 cumulative IPC: 1.34598 (Simulation time: 0 hr 1 min 42 sec) 
Heartbeat CPU 0 instructions: 70000002 cycles: 31051554 heartbeat IPC: 1.31807 cumulative IPC: 1.33188 (Simulation time: 0 hr 1 min 59 sec) 
Heartbeat CPU 0 instructions: 80000003 cycles: 38130341 heartbeat IPC: 1.41267 cumulative IPC: 1.35776 (Simulation time: 0 hr 2 min 16 sec) 
Heartbeat CPU 0 instructions: 90000003 cycles: 45372359 heartbeat IPC: 1.38083 cumulative IPC: 1.36346 (Simulation time: 0 hr 2 min 33 sec) 
Heartbeat CPU 0 instructions: 100000003 cycles: 52683161 heartbeat IPC: 1.36784 cumulative IPC: 1.36433 (Simulation time: 0 hr 2 min 50 sec) 
Finished CPU 0 instructions: 50000003 cycles: 36647958 cumulative IPC: 1.36433 (Simulation time: 0 hr 2 min 50 sec) 

ChampSim completed all CPUs

Region of Interest Statistics

CPU 0 cumulative IPC: 1.36433 instructions: 50000003 cycles: 36647958
L1D TOTAL     ACCESS:   17271832  HIT:   16205463  MISS:    1066369
L1D LOAD      ACCESS:    6292141  HIT:    5790692  MISS:     501449
L1D RFO       ACCESS:    4926650  HIT:    4846533  MISS:      80117
L1D PREFETCH  ACCESS:    6053041  HIT:    5568238  MISS:     484803
L1D WRITEBACK ACCESS:          0  HIT:          0  MISS:          0
L1D PREFETCH  REQUESTED:    6326672  ISSUED:    6232729  USEFUL:     133253  USELESS:     351558
L1D AVERAGE MISS LATENCY: 42.4992 cycles
L1I TOTAL     ACCESS:   33115669  HIT:   31158804  MISS:    1956865
L1I LOAD      ACCESS:    8714639  HIT:    8655033  MISS:      59606
L1I RFO       ACCESS:          0  HIT:          0  MISS:          0
L1I PREFETCH  ACCESS:   24401030  HIT:   22503771  MISS:    1897259
L1I WRITEBACK ACCESS:          0  HIT:          0  MISS:          0
L1I PREFETCH  REQUESTED:   32468173  ISSUED:   32468173  USEFUL:    1389801  USELESS:     507441
L1I AVERAGE MISS LATENCY: 33.8045 cycles
L2C TOTAL     ACCESS:    3863420  HIT:    2484642  MISS:    1378778
L2C LOAD      ACCESS:     507456  HIT:     237805  MISS:     269651
L2C RFO       ACCESS:      78816  HIT:      30268  MISS:      48548
L2C PREFETCH  ACCESS:    3001375  HIT:    1942873  MISS:    1058502
L2C WRITEBACK ACCESS:     275773  HIT:     273696  MISS:       2077
L2C PREFETCH  REQUESTED:    3775776  ISSUED:    3769278  USEFUL:      26926  USELESS:    1030874
L2C AVERAGE MISS LATENCY: 48.2791 cycles
LLC TOTAL     ACCESS:    2545557  HIT:    2368135  MISS:     177422
LLC LOAD      ACCESS:     269467  HIT:     246988  MISS:      22479
LLC RFO       ACCESS:      48535  HIT:      38322  MISS:      10213
LLC PREFETCH  ACCESS:    2053060  HIT:    1908676  MISS:     144384
LLC WRITEBACK ACCESS:     174495  HIT:     174149  MISS:        346
LLC PREFETCH  REQUESTED:          0  ISSUED:          0  USEFUL:      11184  USELESS:     131013
LLC AVERAGE MISS LATENCY: 178.145 cycles
Major fault: 0 Minor fault: 6208
CPU 0 L1I EPI prefetcher final stats
CPU 0 L1D next line prefetcher final stats

DRAM Statistics
 CHANNEL 0
 RQ ROW_BUFFER_HIT:      29827  ROW_BUFFER_MISS:     147236
 DBUS_CONGESTED:      81797
 WQ ROW_BUFFER_HIT:      12272  ROW_BUFFER_MISS:      52329  FULL:          0

 AVG_CONGESTED_CYCLE: 5

CPU 0 Branch Prediction Accuracy: 99.4114% MPKI: 1.0933 Average ROB Occupancy at Mispredict: 126.645

Branch types
NOT_BRANCH: 40713260 81.4265%
BRANCH_DIRECT_JUMP: 463701 0.927402%
BRANCH_INDIRECT: 146544 0.293088%
BRANCH_CONDITIONAL: 6981953 13.9639%
BRANCH_DIRECT_CALL: 665005 1.33001%
BRANCH_INDIRECT_CALL: 165152 0.330304%
BRANCH_RETURN: 864314 1.72863%
BRANCH_OTHER: 0 0%

