Initialize SIGNATURE TABLE
ST_SET: 1
ST_WAY: 256
ST_TAG_BIT: 16
ST_TAG_MASK: ffff

Initialize PATTERN TABLE
PT_SET: 512
PT_WAY: 4
SIG_DELTA_BIT: 7
C_SIG_BIT: 4
C_DELTA_BIT: 4

Initialize PREFETCH FILTER
FILTER_SET: 1024

*** ChampSim Multicore Out-of-Order Simulator ***

Warmup Instructions: 50000000
Simulation Instructions: 50000000
Number of CPUs: 1
LLC sets: 2048
LLC ways: 16
Off-chip DRAM Size: 4096 MB Channels: 1 Width: 64-bit Data Rate: 3200 MT/s

CPU 0 runs /home/ykhodke/ChampSim/dpc3_traces/server_009.champsimtrace.xz
CPU 0 L1D next line prefetcher
Heartbeat CPU 0 instructions: 10000003 cycles: 3201777 heartbeat IPC: 3.12327 cumulative IPC: 3.12327 (Simulation time: 0 hr 0 min 13 sec) 
Heartbeat CPU 0 instructions: 20000001 cycles: 6396963 heartbeat IPC: 3.12971 cumulative IPC: 3.12648 (Simulation time: 0 hr 0 min 26 sec) 
Heartbeat CPU 0 instructions: 30000002 cycles: 9606623 heartbeat IPC: 3.1156 cumulative IPC: 3.12285 (Simulation time: 0 hr 0 min 39 sec) 
Heartbeat CPU 0 instructions: 40000003 cycles: 12813153 heartbeat IPC: 3.11864 cumulative IPC: 3.12179 (Simulation time: 0 hr 0 min 52 sec) 
Heartbeat CPU 0 instructions: 50000000 cycles: 16075471 heartbeat IPC: 3.0653 cumulative IPC: 3.11033 (Simulation time: 0 hr 1 min 5 sec) 

Warmup complete CPU 0 instructions: 50000004 cycles: 16075472 (Simulation time: 0 hr 1 min 5 sec) 

Heartbeat CPU 0 instructions: 60000002 cycles: 34089190 heartbeat IPC: 0.555133 cumulative IPC: 0.555132 (Simulation time: 0 hr 1 min 22 sec) 
Heartbeat CPU 0 instructions: 70000003 cycles: 56020764 heartbeat IPC: 0.455964 cumulative IPC: 0.500685 (Simulation time: 0 hr 1 min 44 sec) 
Heartbeat CPU 0 instructions: 80000000 cycles: 66764574 heartbeat IPC: 0.930768 cumulative IPC: 0.591843 (Simulation time: 0 hr 1 min 55 sec) 
Heartbeat CPU 0 instructions: 90000001 cycles: 77632403 heartbeat IPC: 0.920147 cumulative IPC: 0.649805 (Simulation time: 0 hr 2 min 7 sec) 
Heartbeat CPU 0 instructions: 100000003 cycles: 88345302 heartbeat IPC: 0.933454 cumulative IPC: 0.691852 (Simulation time: 0 hr 2 min 19 sec) 
Finished CPU 0 instructions: 50000003 cycles: 72269831 cumulative IPC: 0.691852 (Simulation time: 0 hr 2 min 19 sec) 

ChampSim completed all CPUs

Region of Interest Statistics

CPU 0 cumulative IPC: 0.691852 instructions: 50000003 cycles: 72269831
L1D TOTAL     ACCESS:   22542201  HIT:   17961650  MISS:    4580551
L1D LOAD      ACCESS:    9060476  HIT:    6790445  MISS:    2270031
L1D RFO       ACCESS:    4621944  HIT:    4517065  MISS:     104879
L1D PREFETCH  ACCESS:    8859781  HIT:    6654140  MISS:    2205641
L1D WRITEBACK ACCESS:          0  HIT:          0  MISS:          0
L1D PREFETCH  REQUESTED:    9095266  ISSUED:    8993197  USEFUL:     116606  USELESS:    2089033
L1D AVERAGE MISS LATENCY: 19.9422 cycles
L1I TOTAL     ACCESS:   10627391  HIT:    9605315  MISS:    1022076
L1I LOAD      ACCESS:   10627391  HIT:    9605315  MISS:    1022076
L1I RFO       ACCESS:          0  HIT:          0  MISS:          0
L1I PREFETCH  ACCESS:          0  HIT:          0  MISS:          0
L1I WRITEBACK ACCESS:          0  HIT:          0  MISS:          0
L1I PREFETCH  REQUESTED:          0  ISSUED:          0  USEFUL:          0  USELESS:          0
L1I AVERAGE MISS LATENCY: 31.4157 cycles
L2C TOTAL     ACCESS:    7641322  HIT:    6667977  MISS:     973345
L2C LOAD      ACCESS:    3276044  HIT:    2620405  MISS:     655639
L2C RFO       ACCESS:     103902  HIT:      65750  MISS:      38152
L2C PREFETCH  ACCESS:    4004510  HIT:    3725464  MISS:     279046
L2C WRITEBACK ACCESS:     256866  HIT:     256358  MISS:        508
L2C PREFETCH  REQUESTED:    7089677  ISSUED:    7089288  USEFUL:      54460  USELESS:     224597
L2C AVERAGE MISS LATENCY: 41.3153 cycles
LLC TOTAL     ACCESS:    2924993  HIT:    2772828  MISS:     152165
LLC LOAD      ACCESS:     630584  HIT:     596090  MISS:      34494
LLC RFO       ACCESS:      38149  HIT:      29208  MISS:       8941
LLC PREFETCH  ACCESS:    2124921  HIT:    2016747  MISS:     108174
LLC WRITEBACK ACCESS:     131339  HIT:     130783  MISS:        556
LLC PREFETCH  REQUESTED:          0  ISSUED:          0  USEFUL:      20862  USELESS:      86456
LLC AVERAGE MISS LATENCY: 161.411 cycles
Major fault: 0 Minor fault: 6351
CPU 0 L1D next line prefetcher final stats

DRAM Statistics
 CHANNEL 0
 RQ ROW_BUFFER_HIT:      30619  ROW_BUFFER_MISS:     120990
 DBUS_CONGESTED:      61747
 WQ ROW_BUFFER_HIT:       8563  ROW_BUFFER_MISS:      40167  FULL:          0

 AVG_CONGESTED_CYCLE: 5

CPU 0 Branch Prediction Accuracy: 99.4713% MPKI: 1.11484 Average ROB Occupancy at Mispredict: 74.0332

Branch types
NOT_BRANCH: 39456615 78.9132%
BRANCH_DIRECT_JUMP: 445350 0.8907%
BRANCH_INDIRECT: 131149 0.262298%
BRANCH_CONDITIONAL: 8130196 16.2604%
BRANCH_DIRECT_CALL: 732485 1.46497%
BRANCH_INDIRECT_CALL: 172369 0.344738%
BRANCH_RETURN: 931558 1.86312%
BRANCH_OTHER: 0 0%

