Initialize SIGNATURE TABLE
ST_SET: 1
ST_WAY: 256
ST_TAG_BIT: 16
ST_TAG_MASK: ffff

Initialize PATTERN TABLE
PT_SET: 512
PT_WAY: 4
SIG_DELTA_BIT: 7
C_SIG_BIT: 4
C_DELTA_BIT: 4

Initialize PREFETCH FILTER
FILTER_SET: 1024

*** ChampSim Multicore Out-of-Order Simulator ***

Warmup Instructions: 50000000
Simulation Instructions: 50000000
Number of CPUs: 1
LLC sets: 2048
LLC ways: 16
Off-chip DRAM Size: 4096 MB Channels: 1 Width: 64-bit Data Rate: 3200 MT/s

CPU 0 runs /home/ykhodke/ChampSim/dpc3_traces/server_039.champsimtrace.xz
L1I D-JOLT instruction prefetcher has been constructed!
CPU 0 L1D next line prefetcher
Heartbeat CPU 0 instructions: 10000003 cycles: 3451669 heartbeat IPC: 2.89715 cumulative IPC: 2.89715 (Simulation time: 0 hr 0 min 15 sec) 
Heartbeat CPU 0 instructions: 20000002 cycles: 6896321 heartbeat IPC: 2.90305 cumulative IPC: 2.9001 (Simulation time: 0 hr 0 min 31 sec) 
Heartbeat CPU 0 instructions: 30000001 cycles: 10342772 heartbeat IPC: 2.90154 cumulative IPC: 2.90058 (Simulation time: 0 hr 0 min 46 sec) 
Heartbeat CPU 0 instructions: 40000002 cycles: 13784647 heartbeat IPC: 2.90539 cumulative IPC: 2.90178 (Simulation time: 0 hr 1 min 1 sec) 
Heartbeat CPU 0 instructions: 50000001 cycles: 17225903 heartbeat IPC: 2.90592 cumulative IPC: 2.90261 (Simulation time: 0 hr 1 min 17 sec) 

Warmup complete CPU 0 instructions: 50000001 cycles: 17225903 (Simulation time: 0 hr 1 min 17 sec) 

Heartbeat CPU 0 instructions: 60000000 cycles: 23000896 heartbeat IPC: 1.7316 cumulative IPC: 1.7316 (Simulation time: 0 hr 1 min 32 sec) 
Heartbeat CPU 0 instructions: 70000000 cycles: 28773619 heartbeat IPC: 1.73228 cumulative IPC: 1.73194 (Simulation time: 0 hr 1 min 48 sec) 
Heartbeat CPU 0 instructions: 80000000 cycles: 34542321 heartbeat IPC: 1.73349 cumulative IPC: 1.73246 (Simulation time: 0 hr 2 min 4 sec) 
Heartbeat CPU 0 instructions: 90000001 cycles: 40313903 heartbeat IPC: 1.73263 cumulative IPC: 1.7325 (Simulation time: 0 hr 2 min 19 sec) 
Heartbeat CPU 0 instructions: 100000002 cycles: 46092752 heartbeat IPC: 1.73045 cumulative IPC: 1.73209 (Simulation time: 0 hr 2 min 35 sec) 
Finished CPU 0 instructions: 50000001 cycles: 28866849 cumulative IPC: 1.73209 (Simulation time: 0 hr 2 min 35 sec) 

ChampSim completed all CPUs

Region of Interest Statistics

CPU 0 cumulative IPC: 1.73209 instructions: 50000001 cycles: 28866849
L1D TOTAL     ACCESS:   19879257  HIT:   19384496  MISS:     494761
L1D LOAD      ACCESS:    6488621  HIT:    6266963  MISS:     221658
L1D RFO       ACCESS:    7088908  HIT:    7021950  MISS:      66958
L1D PREFETCH  ACCESS:    6301728  HIT:    6095583  MISS:     206145
L1D WRITEBACK ACCESS:          0  HIT:          0  MISS:          0
L1D PREFETCH  REQUESTED:    6504509  ISSUED:    6371084  USEFUL:      50012  USELESS:     156137
L1D AVERAGE MISS LATENCY: 15.0722 cycles
L1I TOTAL     ACCESS:   19344129  HIT:   14147191  MISS:    5196938
L1I LOAD      ACCESS:    9295696  HIT:    9208551  MISS:      87145
L1I RFO       ACCESS:          0  HIT:          0  MISS:          0
L1I PREFETCH  ACCESS:   10048433  HIT:    4938640  MISS:    5109793
L1I WRITEBACK ACCESS:          0  HIT:          0  MISS:          0
L1I PREFETCH  REQUESTED:   10762917  ISSUED:   10435254  USEFUL:    4176455  USELESS:     933333
L1I AVERAGE MISS LATENCY: 14.5509 cycles
L2C TOTAL     ACCESS:    8081556  HIT:    8081473  MISS:         83
L2C LOAD      ACCESS:     292092  HIT:     292086  MISS:          6
L2C RFO       ACCESS:      66751  HIT:      66751  MISS:          0
L2C PREFETCH  ACCESS:    7542609  HIT:    7542535  MISS:         74
L2C WRITEBACK ACCESS:     180104  HIT:     180101  MISS:          3
L2C PREFETCH  REQUESTED:    5113854  ISSUED:    5109273  USEFUL:          1  USELESS:          4
L2C AVERAGE MISS LATENCY: 44.747 cycles
LLC TOTAL     ACCESS:     792168  HIT:     791773  MISS:        395
LLC LOAD      ACCESS:          6  HIT:          5  MISS:          1
LLC RFO       ACCESS:          0  HIT:          0  MISS:          0
LLC PREFETCH  ACCESS:     792157  HIT:     791763  MISS:        394
LLC WRITEBACK ACCESS:          5  HIT:          5  MISS:          0
LLC PREFETCH  REQUESTED:          0  ISSUED:          0  USEFUL:          2  USELESS:          0
LLC AVERAGE MISS LATENCY: 171.937 cycles
Major fault: 0 Minor fault: 357
CPU 0 L1D next line prefetcher final stats

DRAM Statistics
 CHANNEL 0
 RQ ROW_BUFFER_HIT:         44  ROW_BUFFER_MISS:        351
 DBUS_CONGESTED:         39
 WQ ROW_BUFFER_HIT:          0  ROW_BUFFER_MISS:          0  FULL:          0

 AVG_CONGESTED_CYCLE: 5

CPU 0 Branch Prediction Accuracy: 99.9091% MPKI: 0.1547 Average ROB Occupancy at Mispredict: 303.881

Branch types
NOT_BRANCH: 41494970 82.9899%
BRANCH_DIRECT_JUMP: 491308 0.982616%
BRANCH_INDIRECT: 0 0%
BRANCH_CONDITIONAL: 5595255 11.1905%
BRANCH_DIRECT_CALL: 1028408 2.05682%
BRANCH_INDIRECT_CALL: 180756 0.361512%
BRANCH_RETURN: 1209170 2.41834%
BRANCH_OTHER: 0 0%

