Initialize SIGNATURE TABLE
ST_SET: 1
ST_WAY: 256
ST_TAG_BIT: 16
ST_TAG_MASK: ffff

Initialize PATTERN TABLE
PT_SET: 512
PT_WAY: 4
SIG_DELTA_BIT: 7
C_SIG_BIT: 4
C_DELTA_BIT: 4

Initialize PREFETCH FILTER
FILTER_SET: 1024

*** ChampSim Multicore Out-of-Order Simulator ***

Warmup Instructions: 50000000
Simulation Instructions: 50000000
Number of CPUs: 1
LLC sets: 2048
LLC ways: 16
Off-chip DRAM Size: 4096 MB Channels: 1 Width: 64-bit Data Rate: 3200 MT/s

CPU 0 runs /home/ykhodke/ChampSim/dpc3_traces/server_011.champsimtrace.xz
CPU 0 EPI prefetcher
CPU 0 L1D next line prefetcher
Heartbeat CPU 0 instructions: 10000002 cycles: 3206492 heartbeat IPC: 3.11867 cumulative IPC: 3.11867 (Simulation time: 0 hr 0 min 17 sec) 
Heartbeat CPU 0 instructions: 20000001 cycles: 6418922 heartbeat IPC: 3.11291 cumulative IPC: 3.11579 (Simulation time: 0 hr 0 min 34 sec) 
Heartbeat CPU 0 instructions: 30000001 cycles: 9674557 heartbeat IPC: 3.0716 cumulative IPC: 3.10092 (Simulation time: 0 hr 0 min 51 sec) 
Heartbeat CPU 0 instructions: 40000003 cycles: 12878632 heartbeat IPC: 3.12103 cumulative IPC: 3.10592 (Simulation time: 0 hr 1 min 8 sec) 
Heartbeat CPU 0 instructions: 50000000 cycles: 16089199 heartbeat IPC: 3.11471 cumulative IPC: 3.10767 (Simulation time: 0 hr 1 min 25 sec) 

Warmup complete CPU 0 instructions: 50000004 cycles: 16089200 (Simulation time: 0 hr 1 min 25 sec) 

Heartbeat CPU 0 instructions: 60000002 cycles: 23399841 heartbeat IPC: 1.36787 cumulative IPC: 1.36787 (Simulation time: 0 hr 1 min 42 sec) 
Heartbeat CPU 0 instructions: 70000001 cycles: 31074332 heartbeat IPC: 1.30302 cumulative IPC: 1.33466 (Simulation time: 0 hr 2 min 0 sec) 
Heartbeat CPU 0 instructions: 80000003 cycles: 39784554 heartbeat IPC: 1.14808 cumulative IPC: 1.26607 (Simulation time: 0 hr 2 min 15 sec) 
Heartbeat CPU 0 instructions: 90000001 cycles: 47259241 heartbeat IPC: 1.33785 cumulative IPC: 1.28328 (Simulation time: 0 hr 2 min 31 sec) 
Heartbeat CPU 0 instructions: 100000000 cycles: 54537246 heartbeat IPC: 1.374 cumulative IPC: 1.30046 (Simulation time: 0 hr 2 min 48 sec) 
Finished CPU 0 instructions: 50000003 cycles: 38448058 cumulative IPC: 1.30046 (Simulation time: 0 hr 2 min 48 sec) 

ChampSim completed all CPUs

Region of Interest Statistics

CPU 0 cumulative IPC: 1.30046 instructions: 50000003 cycles: 38448058
L1D TOTAL     ACCESS:   18148848  HIT:   17117695  MISS:    1031153
L1D LOAD      ACCESS:    6776825  HIT:    6295402  MISS:     481423
L1D RFO       ACCESS:    4832822  HIT:    4750859  MISS:      81963
L1D PREFETCH  ACCESS:    6539201  HIT:    6071434  MISS:     467767
L1D WRITEBACK ACCESS:          0  HIT:          0  MISS:          0
L1D PREFETCH  REQUESTED:    6813546  ISSUED:    6721201  USEFUL:     137505  USELESS:     330258
L1D AVERAGE MISS LATENCY: 40.3676 cycles
L1I TOTAL     ACCESS:   32264535  HIT:   30521255  MISS:    1743280
L1I LOAD      ACCESS:    8884734  HIT:    8814174  MISS:      70560
L1I RFO       ACCESS:          0  HIT:          0  MISS:          0
L1I PREFETCH  ACCESS:   23379801  HIT:   21707081  MISS:    1672720
L1I WRITEBACK ACCESS:          0  HIT:          0  MISS:          0
L1I PREFETCH  REQUESTED:   30241926  ISSUED:   30241926  USEFUL:    1213534  USELESS:     459088
L1I AVERAGE MISS LATENCY: 32.777 cycles
L2C TOTAL     ACCESS:    3618037  HIT:    2497476  MISS:    1120561
L2C LOAD      ACCESS:     499848  HIT:     269756  MISS:     230092
L2C RFO       ACCESS:      80164  HIT:      34665  MISS:      45499
L2C PREFETCH  ACCESS:    2769919  HIT:    1926083  MISS:     843836
L2C WRITEBACK ACCESS:     268106  HIT:     266972  MISS:       1134
L2C PREFETCH  REQUESTED:    3480713  ISSUED:    3472686  USEFUL:      27711  USELESS:     815889
L2C AVERAGE MISS LATENCY: 51.838 cycles
LLC TOTAL     ACCESS:    2172930  HIT:    1990177  MISS:     182753
LLC LOAD      ACCESS:     229752  HIT:     203696  MISS:      26056
LLC RFO       ACCESS:      45492  HIT:      32699  MISS:      12793
LLC PREFETCH  ACCESS:    1746380  HIT:    1602890  MISS:     143490
LLC WRITEBACK ACCESS:     151306  HIT:     150892  MISS:        414
LLC PREFETCH  REQUESTED:          0  ISSUED:          0  USEFUL:      16756  USELESS:     125709
LLC AVERAGE MISS LATENCY: 178.245 cycles
Major fault: 0 Minor fault: 6979
CPU 0 L1I EPI prefetcher final stats
CPU 0 L1D next line prefetcher final stats

DRAM Statistics
 CHANNEL 0
 RQ ROW_BUFFER_HIT:      35334  ROW_BUFFER_MISS:     146992
 DBUS_CONGESTED:      83876
 WQ ROW_BUFFER_HIT:      12097  ROW_BUFFER_MISS:      48949  FULL:          0

 AVG_CONGESTED_CYCLE: 5

CPU 0 Branch Prediction Accuracy: 97.5565% MPKI: 4.59006 Average ROB Occupancy at Mispredict: 63.4375

Branch types
NOT_BRANCH: 40607199 81.2144%
BRANCH_DIRECT_JUMP: 451601 0.903202%
BRANCH_INDIRECT: 151580 0.30316%
BRANCH_CONDITIONAL: 7041635 14.0833%
BRANCH_DIRECT_CALL: 647827 1.29565%
BRANCH_INDIRECT_CALL: 211373 0.422746%
BRANCH_RETURN: 888439 1.77688%
BRANCH_OTHER: 0 0%

