Initialize SIGNATURE TABLE
ST_SET: 1
ST_WAY: 256
ST_TAG_BIT: 16
ST_TAG_MASK: ffff

Initialize PATTERN TABLE
PT_SET: 512
PT_WAY: 4
SIG_DELTA_BIT: 7
C_SIG_BIT: 4
C_DELTA_BIT: 4

Initialize PREFETCH FILTER
FILTER_SET: 1024

*** ChampSim Multicore Out-of-Order Simulator ***

Warmup Instructions: 50000000
Simulation Instructions: 50000000
Number of CPUs: 1
LLC sets: 2048
LLC ways: 16
Off-chip DRAM Size: 4096 MB Channels: 1 Width: 64-bit Data Rate: 3200 MT/s

CPU 0 runs /home/ykhodke/ChampSim/dpc3_traces/server_002.champsimtrace.xz
CPU 0 EPI prefetcher
CPU 0 L1D next line prefetcher
Heartbeat CPU 0 instructions: 10000000 cycles: 3581230 heartbeat IPC: 2.79234 cumulative IPC: 2.79234 (Simulation time: 0 hr 0 min 17 sec) 
Heartbeat CPU 0 instructions: 20000002 cycles: 7170185 heartbeat IPC: 2.78633 cumulative IPC: 2.78933 (Simulation time: 0 hr 0 min 36 sec) 
Heartbeat CPU 0 instructions: 30000000 cycles: 10710954 heartbeat IPC: 2.82424 cumulative IPC: 2.80087 (Simulation time: 0 hr 0 min 55 sec) 
Heartbeat CPU 0 instructions: 40000000 cycles: 14261199 heartbeat IPC: 2.81671 cumulative IPC: 2.80481 (Simulation time: 0 hr 1 min 14 sec) 
Heartbeat CPU 0 instructions: 50000001 cycles: 17808970 heartbeat IPC: 2.81867 cumulative IPC: 2.80757 (Simulation time: 0 hr 1 min 33 sec) 

Warmup complete CPU 0 instructions: 50000001 cycles: 17808970 (Simulation time: 0 hr 1 min 33 sec) 

Heartbeat CPU 0 instructions: 60000000 cycles: 24251169 heartbeat IPC: 1.55226 cumulative IPC: 1.55226 (Simulation time: 0 hr 1 min 54 sec) 
Heartbeat CPU 0 instructions: 70000003 cycles: 30689774 heartbeat IPC: 1.55313 cumulative IPC: 1.5527 (Simulation time: 0 hr 2 min 15 sec) 
Heartbeat CPU 0 instructions: 80000003 cycles: 37129973 heartbeat IPC: 1.55275 cumulative IPC: 1.55271 (Simulation time: 0 hr 2 min 36 sec) 
Heartbeat CPU 0 instructions: 90000002 cycles: 43569132 heartbeat IPC: 1.553 cumulative IPC: 1.55279 (Simulation time: 0 hr 2 min 57 sec) 
Heartbeat CPU 0 instructions: 100000003 cycles: 50005353 heartbeat IPC: 1.55371 cumulative IPC: 1.55297 (Simulation time: 0 hr 3 min 18 sec) 
Finished CPU 0 instructions: 50000002 cycles: 32196383 cumulative IPC: 1.55297 (Simulation time: 0 hr 3 min 18 sec) 

ChampSim completed all CPUs

Region of Interest Statistics

CPU 0 cumulative IPC: 1.55297 instructions: 50000002 cycles: 32196383
L1D TOTAL     ACCESS:   21521495  HIT:   21520686  MISS:        809
L1D LOAD      ACCESS:    6600440  HIT:    6600064  MISS:        376
L1D RFO       ACCESS:    8432992  HIT:    8432879  MISS:        113
L1D PREFETCH  ACCESS:    6488063  HIT:    6487743  MISS:        320
L1D WRITEBACK ACCESS:          0  HIT:          0  MISS:          0
L1D PREFETCH  REQUESTED:    6600494  ISSUED:    6495448  USEFUL:         91  USELESS:        230
L1D AVERAGE MISS LATENCY: 39.1743 cycles
L1I TOTAL     ACCESS:   49715485  HIT:   47976080  MISS:    1739405
L1I LOAD      ACCESS:    9859307  HIT:    9832261  MISS:      27046
L1I RFO       ACCESS:          0  HIT:          0  MISS:          0
L1I PREFETCH  ACCESS:   39856178  HIT:   38143819  MISS:    1712359
L1I WRITEBACK ACCESS:          0  HIT:          0  MISS:          0
L1I PREFETCH  REQUESTED:   50439708  ISSUED:   50439708  USEFUL:    1149765  USELESS:     562601
L1I AVERAGE MISS LATENCY: 14.2485 cycles
L2C TOTAL     ACCESS:    2177666  HIT:    2177278  MISS:        388
L2C LOAD      ACCESS:      22942  HIT:      22869  MISS:         73
L2C RFO       ACCESS:        112  HIT:        108  MISS:          4
L2C PREFETCH  ACCESS:    2154276  HIT:    2153968  MISS:        308
L2C WRITEBACK ACCESS:        336  HIT:        333  MISS:          3
L2C PREFETCH  REQUESTED:     916920  ISSUED:     916912  USEFUL:         61  USELESS:        146
L2C AVERAGE MISS LATENCY: 82.5309 cycles
LLC TOTAL     ACCESS:     196363  HIT:     195462  MISS:        901
LLC LOAD      ACCESS:         73  HIT:         57  MISS:         16
LLC RFO       ACCESS:          4  HIT:          3  MISS:          1
LLC PREFETCH  ACCESS:     196147  HIT:     195270  MISS:        877
LLC WRITEBACK ACCESS:        139  HIT:        132  MISS:          7
LLC PREFETCH  REQUESTED:          0  ISSUED:          0  USEFUL:          7  USELESS:        252
LLC AVERAGE MISS LATENCY: 330.802 cycles
Major fault: 0 Minor fault: 1867
CPU 0 L1I EPI prefetcher final stats
CPU 0 L1D next line prefetcher final stats

DRAM Statistics
 CHANNEL 0
 RQ ROW_BUFFER_HIT:        160  ROW_BUFFER_MISS:        734
 DBUS_CONGESTED:        489
 WQ ROW_BUFFER_HIT:         68  ROW_BUFFER_MISS:        513  FULL:          0

 AVG_CONGESTED_CYCLE: 6

CPU 0 Branch Prediction Accuracy: 99.8789% MPKI: 0.20388 Average ROB Occupancy at Mispredict: 261.811

Branch types
NOT_BRANCH: 41580696 83.1614%
BRANCH_DIRECT_JUMP: 461630 0.92326%
BRANCH_INDIRECT: 0 0%
BRANCH_CONDITIONAL: 5376439 10.7529%
BRANCH_DIRECT_CALL: 1175775 2.35155%
BRANCH_INDIRECT_CALL: 114840 0.22968%
BRANCH_RETURN: 1290625 2.58125%
BRANCH_OTHER: 0 0%

