Initialize SIGNATURE TABLE
ST_SET: 1
ST_WAY: 256
ST_TAG_BIT: 16
ST_TAG_MASK: ffff

Initialize PATTERN TABLE
PT_SET: 512
PT_WAY: 4
SIG_DELTA_BIT: 7
C_SIG_BIT: 4
C_DELTA_BIT: 4

Initialize PREFETCH FILTER
FILTER_SET: 1024

*** ChampSim Multicore Out-of-Order Simulator ***

Warmup Instructions: 50000000
Simulation Instructions: 50000000
Number of CPUs: 1
LLC sets: 2048
LLC ways: 16
Off-chip DRAM Size: 4096 MB Channels: 1 Width: 64-bit Data Rate: 3200 MT/s

CPU 0 runs /home/ykhodke/ChampSim/dpc3_traces/server_011.champsimtrace.xz
L1I D-JOLT instruction prefetcher has been constructed!
CPU 0 L1D next line prefetcher
Heartbeat CPU 0 instructions: 10000002 cycles: 3202421 heartbeat IPC: 3.12264 cumulative IPC: 3.12264 (Simulation time: 0 hr 0 min 14 sec) 
Heartbeat CPU 0 instructions: 20000001 cycles: 6410002 heartbeat IPC: 3.11761 cumulative IPC: 3.12012 (Simulation time: 0 hr 0 min 28 sec) 
Heartbeat CPU 0 instructions: 30000001 cycles: 9661858 heartbeat IPC: 3.07517 cumulative IPC: 3.10499 (Simulation time: 0 hr 0 min 42 sec) 
Heartbeat CPU 0 instructions: 40000003 cycles: 12860558 heartbeat IPC: 3.12627 cumulative IPC: 3.11029 (Simulation time: 0 hr 0 min 56 sec) 
Heartbeat CPU 0 instructions: 50000000 cycles: 16066621 heartbeat IPC: 3.11909 cumulative IPC: 3.11204 (Simulation time: 0 hr 1 min 10 sec) 

Warmup complete CPU 0 instructions: 50000004 cycles: 16066622 (Simulation time: 0 hr 1 min 10 sec) 

Heartbeat CPU 0 instructions: 60000002 cycles: 23484847 heartbeat IPC: 1.34803 cumulative IPC: 1.34803 (Simulation time: 0 hr 1 min 24 sec) 
Heartbeat CPU 0 instructions: 70000001 cycles: 31386225 heartbeat IPC: 1.2656 cumulative IPC: 1.30552 (Simulation time: 0 hr 1 min 38 sec) 
Heartbeat CPU 0 instructions: 80000003 cycles: 40627613 heartbeat IPC: 1.08209 cumulative IPC: 1.22145 (Simulation time: 0 hr 1 min 50 sec) 
Heartbeat CPU 0 instructions: 90000001 cycles: 48295101 heartbeat IPC: 1.30421 cumulative IPC: 1.24114 (Simulation time: 0 hr 2 min 3 sec) 
Heartbeat CPU 0 instructions: 100000000 cycles: 55697235 heartbeat IPC: 1.35096 cumulative IPC: 1.26165 (Simulation time: 0 hr 2 min 17 sec) 
Finished CPU 0 instructions: 50000003 cycles: 39630625 cumulative IPC: 1.26165 (Simulation time: 0 hr 2 min 17 sec) 

ChampSim completed all CPUs

Region of Interest Statistics

CPU 0 cumulative IPC: 1.26165 instructions: 50000003 cycles: 39630625
L1D TOTAL     ACCESS:   18189861  HIT:   17158788  MISS:    1031073
L1D LOAD      ACCESS:    6797533  HIT:    6316378  MISS:     481155
L1D RFO       ACCESS:    4833863  HIT:    4751938  MISS:      81925
L1D PREFETCH  ACCESS:    6558465  HIT:    6090472  MISS:     467993
L1D WRITEBACK ACCESS:          0  HIT:          0  MISS:          0
L1D PREFETCH  REQUESTED:    6834319  ISSUED:    6742024  USEFUL:     137758  USELESS:     330231
L1D AVERAGE MISS LATENCY: 40.7254 cycles
L1I TOTAL     ACCESS:   15615851  HIT:   13754665  MISS:    1861186
L1I LOAD      ACCESS:    8891309  HIT:    8771180  MISS:     120129
L1I RFO       ACCESS:          0  HIT:          0  MISS:          0
L1I PREFETCH  ACCESS:    6724542  HIT:    4983485  MISS:    1741057
L1I WRITEBACK ACCESS:          0  HIT:          0  MISS:          0
L1I PREFETCH  REQUESTED:    7298479  ISSUED:    6994436  USEFUL:    1238187  USELESS:     502847
L1I AVERAGE MISS LATENCY: 30.171 cycles
L2C TOTAL     ACCESS:    3860076  HIT:    2716436  MISS:    1143640
L2C LOAD      ACCESS:     542049  HIT:     286290  MISS:     255759
L2C RFO       ACCESS:      80137  HIT:      33227  MISS:      46910
L2C PREFETCH  ACCESS:    2969787  HIT:    2130510  MISS:     839277
L2C WRITEBACK ACCESS:     268103  HIT:     266409  MISS:       1694
L2C PREFETCH  REQUESTED:    2773358  ISSUED:    2770495  USEFUL:      30206  USELESS:     809193
L2C AVERAGE MISS LATENCY: 49.3908 cycles
LLC TOTAL     ACCESS:    2118005  HIT:    1941527  MISS:     176478
LLC LOAD      ACCESS:     255604  HIT:     224703  MISS:      30901
LLC RFO       ACCESS:      46902  HIT:      33310  MISS:      13592
LLC PREFETCH  ACCESS:    1660163  HIT:    1528427  MISS:     131736
LLC WRITEBACK ACCESS:     155336  HIT:     155087  MISS:        249
LLC PREFETCH  REQUESTED:          0  ISSUED:          0  USEFUL:      19232  USELESS:     112100
LLC AVERAGE MISS LATENCY: 171.82 cycles
Major fault: 0 Minor fault: 6981
CPU 0 L1D next line prefetcher final stats

DRAM Statistics
 CHANNEL 0
 RQ ROW_BUFFER_HIT:      31223  ROW_BUFFER_MISS:     144984
 DBUS_CONGESTED:      73822
 WQ ROW_BUFFER_HIT:      12760  ROW_BUFFER_MISS:      48623  FULL:          0

 AVG_CONGESTED_CYCLE: 5

CPU 0 Branch Prediction Accuracy: 97.5565% MPKI: 4.59006 Average ROB Occupancy at Mispredict: 61.0304

Branch types
NOT_BRANCH: 40607199 81.2144%
BRANCH_DIRECT_JUMP: 451601 0.903202%
BRANCH_INDIRECT: 151580 0.30316%
BRANCH_CONDITIONAL: 7041635 14.0833%
BRANCH_DIRECT_CALL: 647827 1.29565%
BRANCH_INDIRECT_CALL: 211373 0.422746%
BRANCH_RETURN: 888439 1.77688%
BRANCH_OTHER: 0 0%

