Initialize SIGNATURE TABLE
ST_SET: 1
ST_WAY: 256
ST_TAG_BIT: 16
ST_TAG_MASK: ffff

Initialize PATTERN TABLE
PT_SET: 512
PT_WAY: 4
SIG_DELTA_BIT: 7
C_SIG_BIT: 4
C_DELTA_BIT: 4

Initialize PREFETCH FILTER
FILTER_SET: 1024

*** ChampSim Multicore Out-of-Order Simulator ***

Warmup Instructions: 50000000
Simulation Instructions: 50000000
Number of CPUs: 1
LLC sets: 2048
LLC ways: 16
Off-chip DRAM Size: 4096 MB Channels: 1 Width: 64-bit Data Rate: 3200 MT/s

CPU 0 runs /home/ykhodke/ChampSim/dpc3_traces/server_038.champsimtrace.xz
CPU 0 EPI prefetcher
CPU 0 L1D next line prefetcher
Heartbeat CPU 0 instructions: 10000001 cycles: 3320562 heartbeat IPC: 3.01154 cumulative IPC: 3.01154 (Simulation time: 0 hr 0 min 19 sec) 
Heartbeat CPU 0 instructions: 20000003 cycles: 6643916 heartbeat IPC: 3.00901 cumulative IPC: 3.01027 (Simulation time: 0 hr 0 min 38 sec) 
Heartbeat CPU 0 instructions: 30000003 cycles: 9963576 heartbeat IPC: 3.01236 cumulative IPC: 3.01097 (Simulation time: 0 hr 0 min 58 sec) 
Heartbeat CPU 0 instructions: 40000001 cycles: 13287280 heartbeat IPC: 3.00869 cumulative IPC: 3.0104 (Simulation time: 0 hr 1 min 17 sec) 
Heartbeat CPU 0 instructions: 50000001 cycles: 16609123 heartbeat IPC: 3.01038 cumulative IPC: 3.01039 (Simulation time: 0 hr 1 min 36 sec) 

Warmup complete CPU 0 instructions: 50000001 cycles: 16609123 (Simulation time: 0 hr 1 min 36 sec) 

Heartbeat CPU 0 instructions: 60000002 cycles: 23033904 heartbeat IPC: 1.55647 cumulative IPC: 1.55647 (Simulation time: 0 hr 1 min 56 sec) 
Heartbeat CPU 0 instructions: 70000001 cycles: 29414545 heartbeat IPC: 1.56724 cumulative IPC: 1.56184 (Simulation time: 0 hr 2 min 17 sec) 
Heartbeat CPU 0 instructions: 80000000 cycles: 35811429 heartbeat IPC: 1.56326 cumulative IPC: 1.56231 (Simulation time: 0 hr 2 min 37 sec) 
Heartbeat CPU 0 instructions: 90000001 cycles: 42213830 heartbeat IPC: 1.56191 cumulative IPC: 1.56221 (Simulation time: 0 hr 2 min 57 sec) 
*** Reached end of trace for Core: 0 Repeating trace: /home/ykhodke/ChampSim/dpc3_traces/server_038.champsimtrace.xz
Heartbeat CPU 0 instructions: 100000002 cycles: 48619558 heartbeat IPC: 1.5611 cumulative IPC: 1.56199 (Simulation time: 0 hr 3 min 17 sec) 
Finished CPU 0 instructions: 50000001 cycles: 32010435 cumulative IPC: 1.56199 (Simulation time: 0 hr 3 min 17 sec) 

ChampSim completed all CPUs

Region of Interest Statistics

CPU 0 cumulative IPC: 1.56199 instructions: 50000001 cycles: 32010435
L1D TOTAL     ACCESS:   18697200  HIT:   17714850  MISS:     982350
L1D LOAD      ACCESS:    6361458  HIT:    5868110  MISS:     493348
L1D RFO       ACCESS:    6210572  HIT:    6146299  MISS:      64273
L1D PREFETCH  ACCESS:    6125170  HIT:    5700441  MISS:     424729
L1D WRITEBACK ACCESS:          0  HIT:          0  MISS:          0
L1D PREFETCH  REQUESTED:    6398397  ISSUED:    6245623  USEFUL:     117995  USELESS:     306737
L1D AVERAGE MISS LATENCY: 29.3054 cycles
L1I TOTAL     ACCESS:   29374404  HIT:   25049351  MISS:    4325053
L1I LOAD      ACCESS:    9415034  HIT:    9389855  MISS:      25179
L1I RFO       ACCESS:          0  HIT:          0  MISS:          0
L1I PREFETCH  ACCESS:   19959370  HIT:   15659496  MISS:    4299874
L1I WRITEBACK ACCESS:          0  HIT:          0  MISS:          0
L1I PREFETCH  REQUESTED:   23496021  ISSUED:   23496021  USEFUL:    4008919  USELESS:     290931
L1I AVERAGE MISS LATENCY: 15.0465 cycles
L2C TOTAL     ACCESS:    7966869  HIT:    7645052  MISS:     321817
L2C LOAD      ACCESS:     504471  HIT:     361373  MISS:     143098
L2C RFO       ACCESS:      64005  HIT:      35504  MISS:      28501
L2C PREFETCH  ACCESS:    7106665  HIT:    6957222  MISS:     149443
L2C WRITEBACK ACCESS:     291728  HIT:     290953  MISS:        775
L2C PREFETCH  REQUESTED:    6990061  ISSUED:    6983382  USEFUL:       7175  USELESS:     142072
L2C AVERAGE MISS LATENCY: 45.1547 cycles
LLC TOTAL     ACCESS:    1512273  HIT:    1462586  MISS:      49687
LLC LOAD      ACCESS:     143095  HIT:     130482  MISS:      12613
LLC RFO       ACCESS:      28501  HIT:      23364  MISS:       5137
LLC PREFETCH  ACCESS:    1193559  HIT:    1162039  MISS:      31520
LLC WRITEBACK ACCESS:     147118  HIT:     146701  MISS:        417
LLC PREFETCH  REQUESTED:          0  ISSUED:          0  USEFUL:       2790  USELESS:      28773
LLC AVERAGE MISS LATENCY: 165.017 cycles
Major fault: 0 Minor fault: 5526
CPU 0 L1I EPI prefetcher final stats
CPU 0 L1D next line prefetcher final stats

DRAM Statistics
 CHANNEL 0
 RQ ROW_BUFFER_HIT:       8215  ROW_BUFFER_MISS:      41051
 DBUS_CONGESTED:      20004
 WQ ROW_BUFFER_HIT:        981  ROW_BUFFER_MISS:      10850  FULL:          0

 AVG_CONGESTED_CYCLE: 4

CPU 0 Branch Prediction Accuracy: 99.9279% MPKI: 0.12968 Average ROB Occupancy at Mispredict: 259.988

Branch types
NOT_BRANCH: 41006314 82.0126%
BRANCH_DIRECT_JUMP: 541914 1.08383%
BRANCH_INDIRECT: 59690 0.11938%
BRANCH_CONDITIONAL: 5915845 11.8317%
BRANCH_DIRECT_CALL: 1003588 2.00718%
BRANCH_INDIRECT_CALL: 234499 0.468998%
BRANCH_RETURN: 1238071 2.47614%
BRANCH_OTHER: 0 0%

