Initialize SIGNATURE TABLE
ST_SET: 1
ST_WAY: 256
ST_TAG_BIT: 16
ST_TAG_MASK: ffff

Initialize PATTERN TABLE
PT_SET: 512
PT_WAY: 4
SIG_DELTA_BIT: 7
C_SIG_BIT: 4
C_DELTA_BIT: 4

Initialize PREFETCH FILTER
FILTER_SET: 1024

*** ChampSim Multicore Out-of-Order Simulator ***

Warmup Instructions: 50000000
Simulation Instructions: 50000000
Number of CPUs: 1
LLC sets: 2048
LLC ways: 16
Off-chip DRAM Size: 4096 MB Channels: 1 Width: 64-bit Data Rate: 3200 MT/s

CPU 0 runs /home/ykhodke/ChampSim/dpc3_traces/server_020.champsimtrace.xz
CPU 0 EPI prefetcher
CPU 0 L1D next line prefetcher
Heartbeat CPU 0 instructions: 10000003 cycles: 3621317 heartbeat IPC: 2.76143 cumulative IPC: 2.76143 (Simulation time: 0 hr 0 min 17 sec) 
Heartbeat CPU 0 instructions: 20000002 cycles: 7247057 heartbeat IPC: 2.75806 cumulative IPC: 2.75974 (Simulation time: 0 hr 0 min 35 sec) 
Heartbeat CPU 0 instructions: 30000001 cycles: 10865885 heartbeat IPC: 2.76333 cumulative IPC: 2.76093 (Simulation time: 0 hr 0 min 53 sec) 
Heartbeat CPU 0 instructions: 40000002 cycles: 14485579 heartbeat IPC: 2.76266 cumulative IPC: 2.76137 (Simulation time: 0 hr 1 min 11 sec) 
Heartbeat CPU 0 instructions: 50000001 cycles: 18118149 heartbeat IPC: 2.75287 cumulative IPC: 2.75966 (Simulation time: 0 hr 1 min 29 sec) 

Warmup complete CPU 0 instructions: 50000001 cycles: 18118149 (Simulation time: 0 hr 1 min 29 sec) 

Heartbeat CPU 0 instructions: 60000003 cycles: 35506239 heartbeat IPC: 0.575106 cumulative IPC: 0.575106 (Simulation time: 0 hr 1 min 53 sec) 
Heartbeat CPU 0 instructions: 70000001 cycles: 52962593 heartbeat IPC: 0.572857 cumulative IPC: 0.57398 (Simulation time: 0 hr 2 min 17 sec) 
Heartbeat CPU 0 instructions: 80000002 cycles: 70421780 heartbeat IPC: 0.572764 cumulative IPC: 0.573574 (Simulation time: 0 hr 2 min 42 sec) 
Heartbeat CPU 0 instructions: 90000001 cycles: 87958469 heartbeat IPC: 0.570233 cumulative IPC: 0.572735 (Simulation time: 0 hr 3 min 7 sec) 
Heartbeat CPU 0 instructions: 100000002 cycles: 105356469 heartbeat IPC: 0.574779 cumulative IPC: 0.573143 (Simulation time: 0 hr 3 min 32 sec) 
Finished CPU 0 instructions: 50000001 cycles: 87238320 cumulative IPC: 0.573143 (Simulation time: 0 hr 3 min 32 sec) 

ChampSim completed all CPUs

Region of Interest Statistics

CPU 0 cumulative IPC: 0.573143 instructions: 50000001 cycles: 87238320
L1D TOTAL     ACCESS:   18633105  HIT:   16428929  MISS:    2204176
L1D LOAD      ACCESS:    7045218  HIT:    6324526  MISS:     720692
L1D RFO       ACCESS:    5810828  HIT:    4864931  MISS:     945897
L1D PREFETCH  ACCESS:    5777059  HIT:    5239472  MISS:     537587
L1D WRITEBACK ACCESS:          0  HIT:          0  MISS:          0
L1D PREFETCH  REQUESTED:    7085769  ISSUED:    6885272  USEFUL:     198339  USELESS:     339167
L1D AVERAGE MISS LATENCY: 175.7 cycles
L1I TOTAL     ACCESS:   33615678  HIT:   31064572  MISS:    2551106
L1I LOAD      ACCESS:   10096681  HIT:   10072907  MISS:      23774
L1I RFO       ACCESS:          0  HIT:          0  MISS:          0
L1I PREFETCH  ACCESS:   23518997  HIT:   20991665  MISS:    2527332
L1I WRITEBACK ACCESS:          0  HIT:          0  MISS:          0
L1I PREFETCH  REQUESTED:   27904843  ISSUED:   27904843  USEFUL:    2334118  USELESS:     193199
L1I AVERAGE MISS LATENCY: 19.2818 cycles
L2C TOTAL     ACCESS:    7017420  HIT:    5160828  MISS:    1856592
L2C LOAD      ACCESS:     509282  HIT:     244693  MISS:     264589
L2C RFO       ACCESS:     945435  HIT:      20026  MISS:     925409
L2C PREFETCH  ACCESS:    4399173  HIT:    3735097  MISS:     664076
L2C WRITEBACK ACCESS:    1163530  HIT:    1161012  MISS:       2518
L2C PREFETCH  REQUESTED:    4182792  ISSUED:    4177165  USEFUL:      22671  USELESS:     640248
L2C AVERAGE MISS LATENCY: 214.421 cycles
LLC TOTAL     ACCESS:    4038075  HIT:    2593534  MISS:    1444541
LLC LOAD      ACCESS:     264433  HIT:     164723  MISS:      99710
LLC RFO       ACCESS:     925372  HIT:     137712  MISS:     787660
LLC PREFETCH  ACCESS:    1750533  HIT:    1195311  MISS:     555222
LLC WRITEBACK ACCESS:    1097737  HIT:    1095788  MISS:       1949
LLC PREFETCH  REQUESTED:          0  ISSUED:          0  USEFUL:      32411  USELESS:     523359
LLC AVERAGE MISS LATENCY: 280.194 cycles
Major fault: 0 Minor fault: 22093
CPU 0 L1I EPI prefetcher final stats
CPU 0 L1D next line prefetcher final stats

DRAM Statistics
 CHANNEL 0
 RQ ROW_BUFFER_HIT:     407256  ROW_BUFFER_MISS:    1035058
 DBUS_CONGESTED:    1440217
 WQ ROW_BUFFER_HIT:     258282  ROW_BUFFER_MISS:     631713  FULL:          0

 AVG_CONGESTED_CYCLE: 6

CPU 0 Branch Prediction Accuracy: 99.712% MPKI: 0.47638 Average ROB Occupancy at Mispredict: 215.539

Branch types
NOT_BRANCH: 41729604 83.4592%
BRANCH_DIRECT_JUMP: 458221 0.916442%
BRANCH_INDIRECT: 49088 0.098176%
BRANCH_CONDITIONAL: 5938541 11.8771%
BRANCH_DIRECT_CALL: 745133 1.49027%
BRANCH_INDIRECT_CALL: 167110 0.33422%
BRANCH_RETURN: 912224 1.82445%
BRANCH_OTHER: 0 0%

