Initialize SIGNATURE TABLE
ST_SET: 1
ST_WAY: 256
ST_TAG_BIT: 16
ST_TAG_MASK: ffff

Initialize PATTERN TABLE
PT_SET: 512
PT_WAY: 4
SIG_DELTA_BIT: 7
C_SIG_BIT: 4
C_DELTA_BIT: 4

Initialize PREFETCH FILTER
FILTER_SET: 1024

*** ChampSim Multicore Out-of-Order Simulator ***

Warmup Instructions: 50000000
Simulation Instructions: 50000000
Number of CPUs: 1
LLC sets: 2048
LLC ways: 16
Off-chip DRAM Size: 4096 MB Channels: 1 Width: 64-bit Data Rate: 3200 MT/s

CPU 0 runs /home/ykhodke/ChampSim/dpc3_traces/server_026.champsimtrace.xz
CPU 0 L1D next line prefetcher
Heartbeat CPU 0 instructions: 10000000 cycles: 3534009 heartbeat IPC: 2.82965 cumulative IPC: 2.82965 (Simulation time: 0 hr 0 min 14 sec) 
Heartbeat CPU 0 instructions: 20000002 cycles: 7074134 heartbeat IPC: 2.82476 cumulative IPC: 2.8272 (Simulation time: 0 hr 0 min 28 sec) 
Heartbeat CPU 0 instructions: 30000000 cycles: 10603223 heartbeat IPC: 2.83359 cumulative IPC: 2.82933 (Simulation time: 0 hr 0 min 43 sec) 
Heartbeat CPU 0 instructions: 40000003 cycles: 14142055 heartbeat IPC: 2.82579 cumulative IPC: 2.82844 (Simulation time: 0 hr 0 min 57 sec) 
Heartbeat CPU 0 instructions: 50000000 cycles: 17673817 heartbeat IPC: 2.83145 cumulative IPC: 2.82904 (Simulation time: 0 hr 1 min 11 sec) 

Warmup complete CPU 0 instructions: 50000004 cycles: 17673818 (Simulation time: 0 hr 1 min 11 sec) 

*** Reached end of trace for Core: 0 Repeating trace: /home/ykhodke/ChampSim/dpc3_traces/server_026.champsimtrace.xz
Heartbeat CPU 0 instructions: 60000000 cycles: 28516538 heartbeat IPC: 0.922278 cumulative IPC: 0.922277 (Simulation time: 0 hr 1 min 23 sec) 
Heartbeat CPU 0 instructions: 70000003 cycles: 39187160 heartbeat IPC: 0.937153 cumulative IPC: 0.929656 (Simulation time: 0 hr 1 min 36 sec) 
Heartbeat CPU 0 instructions: 80000003 cycles: 50020491 heartbeat IPC: 0.923077 cumulative IPC: 0.927452 (Simulation time: 0 hr 1 min 48 sec) 
Heartbeat CPU 0 instructions: 90000002 cycles: 60717825 heartbeat IPC: 0.934812 cumulative IPC: 0.929281 (Simulation time: 0 hr 2 min 0 sec) 
Heartbeat CPU 0 instructions: 100000000 cycles: 71522896 heartbeat IPC: 0.925491 cumulative IPC: 0.928521 (Simulation time: 0 hr 2 min 12 sec) 
Finished CPU 0 instructions: 50000000 cycles: 53849079 cumulative IPC: 0.928521 (Simulation time: 0 hr 2 min 12 sec) 

ChampSim completed all CPUs

Region of Interest Statistics

CPU 0 cumulative IPC: 0.928521 instructions: 50000000 cycles: 53849079
L1D TOTAL     ACCESS:   22372833  HIT:   20725571  MISS:    1647262
L1D LOAD      ACCESS:    8179782  HIT:    7463503  MISS:     716279
L1D RFO       ACCESS:    6330984  HIT:    6043538  MISS:     287446
L1D PREFETCH  ACCESS:    7862067  HIT:    7218530  MISS:     643537
L1D WRITEBACK ACCESS:          0  HIT:          0  MISS:          0
L1D PREFETCH  REQUESTED:    8227951  ISSUED:    8098165  USEFUL:     164261  USELESS:     479288
L1D AVERAGE MISS LATENCY: 23.0207 cycles
L1I TOTAL     ACCESS:    9276455  HIT:    6536358  MISS:    2740097
L1I LOAD      ACCESS:    9276455  HIT:    6536358  MISS:    2740097
L1I RFO       ACCESS:          0  HIT:          0  MISS:          0
L1I PREFETCH  ACCESS:          0  HIT:          0  MISS:          0
L1I WRITEBACK ACCESS:          0  HIT:          0  MISS:          0
L1I PREFETCH  REQUESTED:          0  ISSUED:          0  USEFUL:          0  USELESS:          0
L1I AVERAGE MISS LATENCY: 18.497 cycles
L2C TOTAL     ACCESS:    7373029  HIT:    6618246  MISS:     754783
L2C LOAD      ACCESS:    3390778  HIT:    2874124  MISS:     516654
L2C RFO       ACCESS:     284750  HIT:     192490  MISS:      92260
L2C PREFETCH  ACCESS:    3136321  HIT:    2993294  MISS:     143027
L2C WRITEBACK ACCESS:     561180  HIT:     558338  MISS:       2842
L2C PREFETCH  REQUESTED:    4952476  ISSUED:    4951930  USEFUL:      12717  USELESS:     130245
L2C AVERAGE MISS LATENCY: 36.3768 cycles
LLC TOTAL     ACCESS:    2477279  HIT:    2442722  MISS:      34557
LLC LOAD      ACCESS:     516300  HIT:     511494  MISS:       4806
LLC RFO       ACCESS:      92257  HIT:      77786  MISS:      14471
LLC PREFETCH  ACCESS:    1714260  HIT:    1699194  MISS:      15066
LLC WRITEBACK ACCESS:     154462  HIT:     154248  MISS:        214
LLC PREFETCH  REQUESTED:          0  ISSUED:          0  USEFUL:       1490  USELESS:      14632
LLC AVERAGE MISS LATENCY: 184.947 cycles
Major fault: 0 Minor fault: 2165
CPU 0 L1D next line prefetcher final stats

DRAM Statistics
 CHANNEL 0
 RQ ROW_BUFFER_HIT:      12608  ROW_BUFFER_MISS:      21728
 DBUS_CONGESTED:      23522
 WQ ROW_BUFFER_HIT:       1528  ROW_BUFFER_MISS:      13969  FULL:          0

 AVG_CONGESTED_CYCLE: 6

CPU 0 Branch Prediction Accuracy: 99.822% MPKI: 0.32584 Average ROB Occupancy at Mispredict: 88.4127

Branch types
NOT_BRANCH: 40848528 81.6971%
BRANCH_DIRECT_JUMP: 522045 1.04409%
BRANCH_INDIRECT: 204034 0.408068%
BRANCH_CONDITIONAL: 6212952 12.4259%
BRANCH_DIRECT_CALL: 932389 1.86478%
BRANCH_INDIRECT_CALL: 173764 0.347528%
BRANCH_RETURN: 1106149 2.2123%
BRANCH_OTHER: 0 0%

