Initialize SIGNATURE TABLE
ST_SET: 1
ST_WAY: 256
ST_TAG_BIT: 16
ST_TAG_MASK: ffff

Initialize PATTERN TABLE
PT_SET: 512
PT_WAY: 4
SIG_DELTA_BIT: 7
C_SIG_BIT: 4
C_DELTA_BIT: 4

Initialize PREFETCH FILTER
FILTER_SET: 1024

*** ChampSim Multicore Out-of-Order Simulator ***

Warmup Instructions: 50000000
Simulation Instructions: 50000000
Number of CPUs: 1
LLC sets: 2048
LLC ways: 16
Off-chip DRAM Size: 4096 MB Channels: 1 Width: 64-bit Data Rate: 3200 MT/s

CPU 0 runs /home/ykhodke/ChampSim/dpc3_traces/server_010.champsimtrace.xz
L1I D-JOLT instruction prefetcher has been constructed!
CPU 0 L1D next line prefetcher
Heartbeat CPU 0 instructions: 10000000 cycles: 3193791 heartbeat IPC: 3.13108 cumulative IPC: 3.13108 (Simulation time: 0 hr 0 min 14 sec) 
Heartbeat CPU 0 instructions: 20000002 cycles: 6384991 heartbeat IPC: 3.13362 cumulative IPC: 3.13235 (Simulation time: 0 hr 0 min 28 sec) 
Heartbeat CPU 0 instructions: 30000001 cycles: 9579461 heartbeat IPC: 3.13041 cumulative IPC: 3.1317 (Simulation time: 0 hr 0 min 41 sec) 
Heartbeat CPU 0 instructions: 40000000 cycles: 12770695 heartbeat IPC: 3.13358 cumulative IPC: 3.13217 (Simulation time: 0 hr 0 min 55 sec) 
Heartbeat CPU 0 instructions: 50000003 cycles: 15967236 heartbeat IPC: 3.12838 cumulative IPC: 3.13141 (Simulation time: 0 hr 1 min 9 sec) 

Warmup complete CPU 0 instructions: 50000003 cycles: 15967236 (Simulation time: 0 hr 1 min 9 sec) 

Heartbeat CPU 0 instructions: 60000001 cycles: 23170282 heartbeat IPC: 1.3883 cumulative IPC: 1.3883 (Simulation time: 0 hr 1 min 23 sec) 
Heartbeat CPU 0 instructions: 70000000 cycles: 30420675 heartbeat IPC: 1.37924 cumulative IPC: 1.38375 (Simulation time: 0 hr 1 min 37 sec) 
Heartbeat CPU 0 instructions: 80000003 cycles: 37715476 heartbeat IPC: 1.37084 cumulative IPC: 1.37942 (Simulation time: 0 hr 1 min 51 sec) 
Heartbeat CPU 0 instructions: 90000002 cycles: 44783187 heartbeat IPC: 1.41489 cumulative IPC: 1.38812 (Simulation time: 0 hr 2 min 5 sec) 
Heartbeat CPU 0 instructions: 100000003 cycles: 65412242 heartbeat IPC: 0.484753 cumulative IPC: 1.01122 (Simulation time: 0 hr 2 min 26 sec) 
Finished CPU 0 instructions: 50000000 cycles: 49445006 cumulative IPC: 1.01122 (Simulation time: 0 hr 2 min 26 sec) 

ChampSim completed all CPUs

Region of Interest Statistics

CPU 0 cumulative IPC: 1.01122 instructions: 50000000 cycles: 49445006
L1D TOTAL     ACCESS:   19876902  HIT:   16651756  MISS:    3225146
L1D LOAD      ACCESS:    7694271  HIT:    6100966  MISS:    1593305
L1D RFO       ACCESS:    4711948  HIT:    4617628  MISS:      94320
L1D PREFETCH  ACCESS:    7470683  HIT:    5933162  MISS:    1537521
L1D WRITEBACK ACCESS:          0  HIT:          0  MISS:          0
L1D PREFETCH  REQUESTED:    7726946  ISSUED:    7630203  USEFUL:     117019  USELESS:    1420475
L1D AVERAGE MISS LATENCY: 22.9344 cycles
L1I TOTAL     ACCESS:   16860038  HIT:   15143718  MISS:    1716320
L1I LOAD      ACCESS:    9971609  HIT:    9905134  MISS:      66475
L1I RFO       ACCESS:          0  HIT:          0  MISS:          0
L1I PREFETCH  ACCESS:    6888429  HIT:    5238584  MISS:    1649845
L1I WRITEBACK ACCESS:          0  HIT:          0  MISS:          0
L1I PREFETCH  REQUESTED:    7504456  ISSUED:    7263883  USEFUL:    1222667  USELESS:     427095
L1I AVERAGE MISS LATENCY: 31.0215 cycles
L2C TOTAL     ACCESS:    6418289  HIT:    5268887  MISS:    1149402
L2C LOAD      ACCESS:    1607148  HIT:    1370933  MISS:     236215
L2C RFO       ACCESS:      93279  HIT:      48849  MISS:      44430
L2C PREFETCH  ACCESS:    4452520  HIT:    3585189  MISS:     867331
L2C WRITEBACK ACCESS:     265342  HIT:     263916  MISS:       1426
L2C PREFETCH  REQUESTED:    5827323  ISSUED:    5824600  USEFUL:      22245  USELESS:     846434
L2C AVERAGE MISS LATENCY: 46.5506 cycles
LLC TOTAL     ACCESS:    2373687  HIT:    2238215  MISS:     135472
LLC LOAD      ACCESS:     236137  HIT:     218084  MISS:      18053
LLC RFO       ACCESS:      44426  HIT:      34650  MISS:       9776
LLC PREFETCH  ACCESS:    1943222  HIT:    1835738  MISS:     107484
LLC WRITEBACK ACCESS:     149902  HIT:     149743  MISS:        159
LLC PREFETCH  REQUESTED:          0  ISSUED:          0  USEFUL:       9980  USELESS:      98323
LLC AVERAGE MISS LATENCY: 176.498 cycles
Major fault: 0 Minor fault: 5607
CPU 0 L1D next line prefetcher final stats

DRAM Statistics
 CHANNEL 0
 RQ ROW_BUFFER_HIT:      19356  ROW_BUFFER_MISS:     115927
 DBUS_CONGESTED:      59096
 WQ ROW_BUFFER_HIT:      10165  ROW_BUFFER_MISS:      44548  FULL:          0

 AVG_CONGESTED_CYCLE: 5

CPU 0 Branch Prediction Accuracy: 99.5528% MPKI: 0.89798 Average ROB Occupancy at Mispredict: 130.966

Branch types
NOT_BRANCH: 39958787 79.9176%
BRANCH_DIRECT_JUMP: 449946 0.899892%
BRANCH_INDIRECT: 140210 0.28042%
BRANCH_CONDITIONAL: 7679677 15.3594%
BRANCH_DIRECT_CALL: 701578 1.40316%
BRANCH_INDIRECT_CALL: 168971 0.337942%
BRANCH_RETURN: 900560 1.80112%
BRANCH_OTHER: 0 0%

