Initialize SIGNATURE TABLE
ST_SET: 1
ST_WAY: 256
ST_TAG_BIT: 16
ST_TAG_MASK: ffff

Initialize PATTERN TABLE
PT_SET: 512
PT_WAY: 4
SIG_DELTA_BIT: 7
C_SIG_BIT: 4
C_DELTA_BIT: 4

Initialize PREFETCH FILTER
FILTER_SET: 1024

*** ChampSim Multicore Out-of-Order Simulator ***

Warmup Instructions: 50000000
Simulation Instructions: 50000000
Number of CPUs: 1
LLC sets: 2048
LLC ways: 16
Off-chip DRAM Size: 4096 MB Channels: 1 Width: 64-bit Data Rate: 3200 MT/s

CPU 0 runs /home/ykhodke/ChampSim/dpc3_traces/server_013.champsimtrace.xz
L1I D-JOLT instruction prefetcher has been constructed!
CPU 0 L1D next line prefetcher
Heartbeat CPU 0 instructions: 10000000 cycles: 3210768 heartbeat IPC: 3.11452 cumulative IPC: 3.11452 (Simulation time: 0 hr 0 min 14 sec) 
Heartbeat CPU 0 instructions: 20000001 cycles: 6410738 heartbeat IPC: 3.12503 cumulative IPC: 3.11977 (Simulation time: 0 hr 0 min 28 sec) 
Heartbeat CPU 0 instructions: 30000002 cycles: 9614900 heartbeat IPC: 3.12094 cumulative IPC: 3.12016 (Simulation time: 0 hr 0 min 42 sec) 
Heartbeat CPU 0 instructions: 40000002 cycles: 12815358 heartbeat IPC: 3.12455 cumulative IPC: 3.12126 (Simulation time: 0 hr 0 min 56 sec) 
Heartbeat CPU 0 instructions: 50000000 cycles: 16015559 heartbeat IPC: 3.1248 cumulative IPC: 3.12196 (Simulation time: 0 hr 1 min 10 sec) 

Warmup complete CPU 0 instructions: 50000004 cycles: 16015560 (Simulation time: 0 hr 1 min 10 sec) 

Heartbeat CPU 0 instructions: 60000000 cycles: 23515820 heartbeat IPC: 1.33329 cumulative IPC: 1.33329 (Simulation time: 0 hr 1 min 24 sec) 
Heartbeat CPU 0 instructions: 70000002 cycles: 31235863 heartbeat IPC: 1.29533 cumulative IPC: 1.31403 (Simulation time: 0 hr 1 min 38 sec) 
Heartbeat CPU 0 instructions: 80000003 cycles: 38434135 heartbeat IPC: 1.38922 cumulative IPC: 1.33818 (Simulation time: 0 hr 1 min 52 sec) 
Heartbeat CPU 0 instructions: 90000003 cycles: 45837496 heartbeat IPC: 1.35074 cumulative IPC: 1.34129 (Simulation time: 0 hr 2 min 6 sec) 
Heartbeat CPU 0 instructions: 100000003 cycles: 53184244 heartbeat IPC: 1.36115 cumulative IPC: 1.34522 (Simulation time: 0 hr 2 min 20 sec) 
Finished CPU 0 instructions: 50000003 cycles: 37168685 cumulative IPC: 1.34522 (Simulation time: 0 hr 2 min 20 sec) 

ChampSim completed all CPUs

Region of Interest Statistics

CPU 0 cumulative IPC: 1.34522 instructions: 50000003 cycles: 37168685
L1D TOTAL     ACCESS:   17311932  HIT:   16245541  MISS:    1066391
L1D LOAD      ACCESS:    6311182  HIT:    5810224  MISS:     500958
L1D RFO       ACCESS:    4929634  HIT:    4849463  MISS:      80171
L1D PREFETCH  ACCESS:    6071116  HIT:    5585854  MISS:     485262
L1D WRITEBACK ACCESS:          0  HIT:          0  MISS:          0
L1D PREFETCH  REQUESTED:    6345568  ISSUED:    6251755  USEFUL:     133728  USELESS:     351544
L1D AVERAGE MISS LATENCY: 42.3199 cycles
L1I TOTAL     ACCESS:   16461465  HIT:   14329269  MISS:    2132196
L1I LOAD      ACCESS:    8723478  HIT:    8631751  MISS:      91727
L1I RFO       ACCESS:          0  HIT:          0  MISS:          0
L1I PREFETCH  ACCESS:    7737987  HIT:    5697518  MISS:    2040469
L1I WRITEBACK ACCESS:          0  HIT:          0  MISS:          0
L1I PREFETCH  REQUESTED:    8550497  ISSUED:    8069627  USEFUL:    1458957  USELESS:     581407
L1I AVERAGE MISS LATENCY: 30.8338 cycles
L2C TOTAL     ACCESS:    4223122  HIT:    2824414  MISS:    1398708
L2C LOAD      ACCESS:     527827  HIT:     239536  MISS:     288291
L2C RFO       ACCESS:      78829  HIT:      30005  MISS:      48824
L2C PREFETCH  ACCESS:    3340691  HIT:    2280470  MISS:    1060221
L2C WRITEBACK ACCESS:     275775  HIT:     274403  MISS:       1372
L2C PREFETCH  REQUESTED:    3285534  ISSUED:    3280992  USEFUL:      27229  USELESS:    1033168
L2C AVERAGE MISS LATENCY: 46.1046 cycles
LLC TOTAL     ACCESS:    2622986  HIT:    2447558  MISS:     175428
LLC LOAD      ACCESS:     288194  HIT:     265014  MISS:      23180
LLC RFO       ACCESS:      48816  HIT:      39314  MISS:       9502
LLC PREFETCH  ACCESS:    2112583  HIT:    1970119  MISS:     142464
LLC WRITEBACK ACCESS:     173393  HIT:     173111  MISS:        282
LLC PREFETCH  REQUESTED:          0  ISSUED:          0  USEFUL:      12813  USELESS:     129063
LLC AVERAGE MISS LATENCY: 174.327 cycles
Major fault: 0 Minor fault: 6210
CPU 0 L1D next line prefetcher final stats

DRAM Statistics
 CHANNEL 0
 RQ ROW_BUFFER_HIT:      28488  ROW_BUFFER_MISS:     146650
 DBUS_CONGESTED:      72240
 WQ ROW_BUFFER_HIT:      12005  ROW_BUFFER_MISS:      49934  FULL:          0

 AVG_CONGESTED_CYCLE: 5

CPU 0 Branch Prediction Accuracy: 99.4114% MPKI: 1.0933 Average ROB Occupancy at Mispredict: 124.358

Branch types
NOT_BRANCH: 40713277 81.4265%
BRANCH_DIRECT_JUMP: 463701 0.927402%
BRANCH_INDIRECT: 146544 0.293088%
BRANCH_CONDITIONAL: 6981956 13.9639%
BRANCH_DIRECT_CALL: 665005 1.33001%
BRANCH_INDIRECT_CALL: 165152 0.330304%
BRANCH_RETURN: 864314 1.72863%
BRANCH_OTHER: 0 0%

