Initialize SIGNATURE TABLE
ST_SET: 1
ST_WAY: 256
ST_TAG_BIT: 16
ST_TAG_MASK: ffff

Initialize PATTERN TABLE
PT_SET: 512
PT_WAY: 4
SIG_DELTA_BIT: 7
C_SIG_BIT: 4
C_DELTA_BIT: 4

Initialize PREFETCH FILTER
FILTER_SET: 1024

*** ChampSim Multicore Out-of-Order Simulator ***

Warmup Instructions: 50000000
Simulation Instructions: 50000000
Number of CPUs: 1
LLC sets: 2048
LLC ways: 16
Off-chip DRAM Size: 4096 MB Channels: 1 Width: 64-bit Data Rate: 3200 MT/s

CPU 0 runs /home/ykhodke/ChampSim/dpc3_traces/server_020.champsimtrace.xz
L1I D-JOLT instruction prefetcher has been constructed!
CPU 0 L1D next line prefetcher
Heartbeat CPU 0 instructions: 10000003 cycles: 3621885 heartbeat IPC: 2.76099 cumulative IPC: 2.76099 (Simulation time: 0 hr 0 min 16 sec) 
Heartbeat CPU 0 instructions: 20000002 cycles: 7248234 heartbeat IPC: 2.75759 cumulative IPC: 2.75929 (Simulation time: 0 hr 0 min 31 sec) 
Heartbeat CPU 0 instructions: 30000001 cycles: 10867913 heartbeat IPC: 2.76268 cumulative IPC: 2.76042 (Simulation time: 0 hr 0 min 46 sec) 
Heartbeat CPU 0 instructions: 40000002 cycles: 14488885 heartbeat IPC: 2.76169 cumulative IPC: 2.76074 (Simulation time: 0 hr 1 min 2 sec) 
Heartbeat CPU 0 instructions: 50000001 cycles: 18123197 heartbeat IPC: 2.75155 cumulative IPC: 2.7589 (Simulation time: 0 hr 1 min 18 sec) 

Warmup complete CPU 0 instructions: 50000001 cycles: 18123197 (Simulation time: 0 hr 1 min 18 sec) 

Heartbeat CPU 0 instructions: 60000003 cycles: 35501997 heartbeat IPC: 0.575414 cumulative IPC: 0.575414 (Simulation time: 0 hr 1 min 39 sec) 
Heartbeat CPU 0 instructions: 70000002 cycles: 52870092 heartbeat IPC: 0.575768 cumulative IPC: 0.575591 (Simulation time: 0 hr 2 min 1 sec) 
Heartbeat CPU 0 instructions: 80000002 cycles: 70193037 heartbeat IPC: 0.577269 cumulative IPC: 0.576149 (Simulation time: 0 hr 2 min 22 sec) 
Heartbeat CPU 0 instructions: 90000001 cycles: 87567425 heartbeat IPC: 0.57556 cumulative IPC: 0.576002 (Simulation time: 0 hr 2 min 44 sec) 
Heartbeat CPU 0 instructions: 100000002 cycles: 104875222 heartbeat IPC: 0.577774 cumulative IPC: 0.576355 (Simulation time: 0 hr 3 min 5 sec) 
Finished CPU 0 instructions: 50000001 cycles: 86752025 cumulative IPC: 0.576355 (Simulation time: 0 hr 3 min 5 sec) 

ChampSim completed all CPUs

Region of Interest Statistics

CPU 0 cumulative IPC: 0.576355 instructions: 50000001 cycles: 86752025
L1D TOTAL     ACCESS:   18628363  HIT:   16424108  MISS:    2204255
L1D LOAD      ACCESS:    7045763  HIT:    6327046  MISS:     718717
L1D RFO       ACCESS:    5803198  HIT:    4857239  MISS:     945959
L1D PREFETCH  ACCESS:    5779402  HIT:    5239823  MISS:     539579
L1D WRITEBACK ACCESS:          0  HIT:          0  MISS:          0
L1D PREFETCH  REQUESTED:    7087549  ISSUED:    6887779  USEFUL:     200262  USELESS:     339236
L1D AVERAGE MISS LATENCY: 177.512 cycles
L1I TOTAL     ACCESS:   18620560  HIT:   15160712  MISS:    3459848
L1I LOAD      ACCESS:   10127534  HIT:   10080491  MISS:      47043
L1I RFO       ACCESS:          0  HIT:          0  MISS:          0
L1I PREFETCH  ACCESS:    8493026  HIT:    5080221  MISS:    3412805
L1I WRITEBACK ACCESS:          0  HIT:          0  MISS:          0
L1I PREFETCH  REQUESTED:    9097447  ISSUED:    9043678  USEFUL:    2714384  USELESS:     698449
L1I AVERAGE MISS LATENCY: 18.2534 cycles
L2C TOTAL     ACCESS:    8310116  HIT:    6449699  MISS:    1860417
L2C LOAD      ACCESS:     535662  HIT:     269834  MISS:     265828
L2C RFO       ACCESS:     945490  HIT:      18608  MISS:     926882
L2C PREFETCH  ACCESS:    5665383  HIT:    5000940  MISS:     664443
L2C WRITEBACK ACCESS:    1163581  HIT:    1160317  MISS:       3264
L2C PREFETCH  REQUESTED:    5091800  ISSUED:    5087772  USEFUL:      21571  USELESS:     641675
L2C AVERAGE MISS LATENCY: 216.27 cycles
LLC TOTAL     ACCESS:    4230390  HIT:    2762957  MISS:    1467433
LLC LOAD      ACCESS:     265761  HIT:     165142  MISS:     100619
LLC RFO       ACCESS:     926876  HIT:     137782  MISS:     789094
LLC PREFETCH  ACCESS:    1937355  HIT:    1361804  MISS:     575551
LLC WRITEBACK ACCESS:    1100398  HIT:    1098229  MISS:       2169
LLC PREFETCH  REQUESTED:          0  ISSUED:          0  USEFUL:      32624  USELESS:     543260
LLC AVERAGE MISS LATENCY: 284.877 cycles
Major fault: 0 Minor fault: 22095
CPU 0 L1D next line prefetcher final stats

DRAM Statistics
 CHANNEL 0
 RQ ROW_BUFFER_HIT:     412258  ROW_BUFFER_MISS:    1052662
 DBUS_CONGESTED:    1463765
 WQ ROW_BUFFER_HIT:     247211  ROW_BUFFER_MISS:     644531  FULL:          0

 AVG_CONGESTED_CYCLE: 6

CPU 0 Branch Prediction Accuracy: 99.712% MPKI: 0.47638 Average ROB Occupancy at Mispredict: 215.365

Branch types
NOT_BRANCH: 41729517 83.459%
BRANCH_DIRECT_JUMP: 458221 0.916442%
BRANCH_INDIRECT: 49088 0.098176%
BRANCH_CONDITIONAL: 5938532 11.8771%
BRANCH_DIRECT_CALL: 745131 1.49026%
BRANCH_INDIRECT_CALL: 167109 0.334218%
BRANCH_RETURN: 912223 1.82445%
BRANCH_OTHER: 0 0%

