Initialize SIGNATURE TABLE
ST_SET: 1
ST_WAY: 256
ST_TAG_BIT: 16
ST_TAG_MASK: ffff

Initialize PATTERN TABLE
PT_SET: 512
PT_WAY: 4
SIG_DELTA_BIT: 7
C_SIG_BIT: 4
C_DELTA_BIT: 4

Initialize PREFETCH FILTER
FILTER_SET: 1024

*** ChampSim Multicore Out-of-Order Simulator ***

Warmup Instructions: 50000000
Simulation Instructions: 50000000
Number of CPUs: 1
LLC sets: 2048
LLC ways: 16
Off-chip DRAM Size: 4096 MB Channels: 1 Width: 64-bit Data Rate: 3200 MT/s

CPU 0 runs /home/ykhodke/ChampSim/dpc3_traces/server_017.champsimtrace.xz
CPU 0 L1D next line prefetcher
Heartbeat CPU 0 instructions: 10000001 cycles: 3627500 heartbeat IPC: 2.75672 cumulative IPC: 2.75672 (Simulation time: 0 hr 0 min 15 sec) 
Heartbeat CPU 0 instructions: 20000000 cycles: 7252948 heartbeat IPC: 2.75828 cumulative IPC: 2.7575 (Simulation time: 0 hr 0 min 29 sec) 
Heartbeat CPU 0 instructions: 30000002 cycles: 10885213 heartbeat IPC: 2.7531 cumulative IPC: 2.75603 (Simulation time: 0 hr 0 min 44 sec) 
Heartbeat CPU 0 instructions: 40000000 cycles: 14512800 heartbeat IPC: 2.75665 cumulative IPC: 2.75619 (Simulation time: 0 hr 0 min 58 sec) 
Heartbeat CPU 0 instructions: 50000001 cycles: 18151070 heartbeat IPC: 2.74856 cumulative IPC: 2.75466 (Simulation time: 0 hr 1 min 13 sec) 

Warmup complete CPU 0 instructions: 50000001 cycles: 18151070 (Simulation time: 0 hr 1 min 13 sec) 

Heartbeat CPU 0 instructions: 60000002 cycles: 37801617 heartbeat IPC: 0.508892 cumulative IPC: 0.508892 (Simulation time: 0 hr 1 min 32 sec) 
Heartbeat CPU 0 instructions: 70000000 cycles: 57607323 heartbeat IPC: 0.504905 cumulative IPC: 0.50689 (Simulation time: 0 hr 1 min 50 sec) 
Heartbeat CPU 0 instructions: 80000000 cycles: 77260899 heartbeat IPC: 0.508813 cumulative IPC: 0.50753 (Simulation time: 0 hr 2 min 9 sec) 
Heartbeat CPU 0 instructions: 90000002 cycles: 102056110 heartbeat IPC: 0.403304 cumulative IPC: 0.476729 (Simulation time: 0 hr 2 min 29 sec) 
Heartbeat CPU 0 instructions: 100000003 cycles: 123978510 heartbeat IPC: 0.456154 cumulative IPC: 0.472467 (Simulation time: 0 hr 2 min 48 sec) 
Finished CPU 0 instructions: 50000002 cycles: 105827440 cumulative IPC: 0.472467 (Simulation time: 0 hr 2 min 48 sec) 

ChampSim completed all CPUs

Region of Interest Statistics

CPU 0 cumulative IPC: 0.472467 instructions: 50000002 cycles: 105827440
L1D TOTAL     ACCESS:   19540256  HIT:   17374609  MISS:    2165647
L1D LOAD      ACCESS:    7578351  HIT:    6828997  MISS:     749354
L1D RFO       ACCESS:    5559083  HIT:    4699845  MISS:     859238
L1D PREFETCH  ACCESS:    6402822  HIT:    5845767  MISS:     557055
L1D WRITEBACK ACCESS:          0  HIT:          0  MISS:          0
L1D PREFETCH  REQUESTED:    7621720  ISSUED:    7447667  USEFUL:     194552  USELESS:     362564
L1D AVERAGE MISS LATENCY: 170.714 cycles
L1I TOTAL     ACCESS:    9757883  HIT:    7592347  MISS:    2165536
L1I LOAD      ACCESS:    9757883  HIT:    7592347  MISS:    2165536
L1I RFO       ACCESS:          0  HIT:          0  MISS:          0
L1I PREFETCH  ACCESS:          0  HIT:          0  MISS:          0
L1I WRITEBACK ACCESS:          0  HIT:          0  MISS:          0
L1I PREFETCH  REQUESTED:          0  ISSUED:          0  USEFUL:          0  USELESS:          0
L1I AVERAGE MISS LATENCY: 17.6961 cycles
L2C TOTAL     ACCESS:    7398079  HIT:    5555191  MISS:    1842888
L2C LOAD      ACCESS:    2705324  HIT:    2266444  MISS:     438880
L2C RFO       ACCESS:     858803  HIT:      17553  MISS:     841250
L2C PREFETCH  ACCESS:    2711103  HIT:    2150075  MISS:     561028
L2C WRITEBACK ACCESS:    1122849  HIT:    1121119  MISS:       1730
L2C PREFETCH  REQUESTED:    3878447  ISSUED:    3875795  USEFUL:      21926  USELESS:     539047
L2C AVERAGE MISS LATENCY: 203.69 cycles
LLC TOTAL     ACCESS:    4127064  HIT:    2553984  MISS:    1573080
LLC LOAD      ACCESS:     438529  HIT:     265271  MISS:     173258
LLC RFO       ACCESS:     841246  HIT:     122526  MISS:     718720
LLC PREFETCH  ACCESS:    1786238  HIT:    1107661  MISS:     678577
LLC WRITEBACK ACCESS:    1061051  HIT:    1058526  MISS:       2525
LLC PREFETCH  REQUESTED:          0  ISSUED:          0  USEFUL:      54794  USELESS:     624211
LLC AVERAGE MISS LATENCY: 252.998 cycles
Major fault: 0 Minor fault: 24694
CPU 0 L1D next line prefetcher final stats

DRAM Statistics
 CHANNEL 0
 RQ ROW_BUFFER_HIT:     376698  ROW_BUFFER_MISS:    1193744
 DBUS_CONGESTED:    1486824
 WQ ROW_BUFFER_HIT:     256261  ROW_BUFFER_MISS:     619592  FULL:          0

 AVG_CONGESTED_CYCLE: 6

CPU 0 Branch Prediction Accuracy: 99.2833% MPKI: 1.20568 Average ROB Occupancy at Mispredict: 170.744

Branch types
NOT_BRANCH: 41588346 83.1767%
BRANCH_DIRECT_JUMP: 464501 0.929002%
BRANCH_INDIRECT: 45704 0.091408%
BRANCH_CONDITIONAL: 6147408 12.2948%
BRANCH_DIRECT_CALL: 675450 1.3509%
BRANCH_INDIRECT_CALL: 201532 0.403064%
BRANCH_RETURN: 876985 1.75397%
BRANCH_OTHER: 0 0%

