Initialize SIGNATURE TABLE
ST_SET: 1
ST_WAY: 256
ST_TAG_BIT: 16
ST_TAG_MASK: ffff

Initialize PATTERN TABLE
PT_SET: 512
PT_WAY: 4
SIG_DELTA_BIT: 7
C_SIG_BIT: 4
C_DELTA_BIT: 4

Initialize PREFETCH FILTER
FILTER_SET: 1024

*** ChampSim Multicore Out-of-Order Simulator ***

Warmup Instructions: 50000000
Simulation Instructions: 50000000
Number of CPUs: 1
LLC sets: 2048
LLC ways: 16
Off-chip DRAM Size: 4096 MB Channels: 1 Width: 64-bit Data Rate: 3200 MT/s

CPU 0 runs /home/ykhodke/ChampSim/dpc3_traces/server_029.champsimtrace.xz
CPU 0 EPI prefetcher
CPU 0 L1D next line prefetcher
Heartbeat CPU 0 instructions: 10000001 cycles: 3488383 heartbeat IPC: 2.86666 cumulative IPC: 2.86666 (Simulation time: 0 hr 0 min 18 sec) 
Heartbeat CPU 0 instructions: 20000002 cycles: 6976912 heartbeat IPC: 2.86654 cumulative IPC: 2.8666 (Simulation time: 0 hr 0 min 36 sec) 
Heartbeat CPU 0 instructions: 30000003 cycles: 10467177 heartbeat IPC: 2.86511 cumulative IPC: 2.8661 (Simulation time: 0 hr 0 min 55 sec) 
Heartbeat CPU 0 instructions: 40000000 cycles: 13964463 heartbeat IPC: 2.85936 cumulative IPC: 2.86441 (Simulation time: 0 hr 1 min 13 sec) 
Heartbeat CPU 0 instructions: 50000000 cycles: 17460444 heartbeat IPC: 2.86043 cumulative IPC: 2.86362 (Simulation time: 0 hr 1 min 31 sec) 

Warmup complete CPU 0 instructions: 50000004 cycles: 17460445 (Simulation time: 0 hr 1 min 31 sec) 

Heartbeat CPU 0 instructions: 60000000 cycles: 24934008 heartbeat IPC: 1.33805 cumulative IPC: 1.33805 (Simulation time: 0 hr 1 min 50 sec) 
Heartbeat CPU 0 instructions: 70000003 cycles: 32551639 heartbeat IPC: 1.31274 cumulative IPC: 1.32528 (Simulation time: 0 hr 2 min 9 sec) 
Heartbeat CPU 0 instructions: 80000002 cycles: 40004352 heartbeat IPC: 1.34179 cumulative IPC: 1.33074 (Simulation time: 0 hr 2 min 28 sec) 
*** Reached end of trace for Core: 0 Repeating trace: /home/ykhodke/ChampSim/dpc3_traces/server_029.champsimtrace.xz
Heartbeat CPU 0 instructions: 90000000 cycles: 47380820 heartbeat IPC: 1.35566 cumulative IPC: 1.33688 (Simulation time: 0 hr 2 min 48 sec) 
Heartbeat CPU 0 instructions: 100000003 cycles: 54751488 heartbeat IPC: 1.35673 cumulative IPC: 1.3408 (Simulation time: 0 hr 3 min 7 sec) 
Finished CPU 0 instructions: 50000003 cycles: 37291044 cumulative IPC: 1.3408 (Simulation time: 0 hr 3 min 7 sec) 

ChampSim completed all CPUs

Region of Interest Statistics

CPU 0 cumulative IPC: 1.3408 instructions: 50000003 cycles: 37291044
L1D TOTAL     ACCESS:   19048497  HIT:   16952268  MISS:    2096229
L1D LOAD      ACCESS:    6726814  HIT:    5660758  MISS:    1066056
L1D RFO       ACCESS:    6112756  HIT:    5827271  MISS:     285485
L1D PREFETCH  ACCESS:    6208927  HIT:    5464239  MISS:     744688
L1D WRITEBACK ACCESS:          0  HIT:          0  MISS:          0
L1D PREFETCH  REQUESTED:    6787553  ISSUED:    6679756  USEFUL:     174701  USELESS:     569976
L1D AVERAGE MISS LATENCY: 21.1023 cycles
L1I TOTAL     ACCESS:   29431853  HIT:   25949095  MISS:    3482758
L1I LOAD      ACCESS:    9807787  HIT:    9772259  MISS:      35528
L1I RFO       ACCESS:          0  HIT:          0  MISS:          0
L1I PREFETCH  ACCESS:   19624066  HIT:   16176836  MISS:    3447230
L1I WRITEBACK ACCESS:          0  HIT:          0  MISS:          0
L1I PREFETCH  REQUESTED:   25191700  ISSUED:   25191700  USEFUL:    2929983  USELESS:     517244
L1I AVERAGE MISS LATENCY: 18.2433 cycles
L2C TOTAL     ACCESS:    7911654  HIT:    7272991  MISS:     638663
L2C LOAD      ACCESS:     925423  HIT:     795100  MISS:     130323
L2C RFO       ACCESS:     283550  HIT:     238052  MISS:      45498
L2C PREFETCH  ACCESS:    6092179  HIT:    5630533  MISS:     461646
L2C WRITEBACK ACCESS:     610502  HIT:     609306  MISS:       1196
L2C PREFETCH  REQUESTED:    7306350  ISSUED:    7273183  USEFUL:      11093  USELESS:     449842
L2C AVERAGE MISS LATENCY: 43.4836 cycles
LLC TOTAL     ACCESS:    2566947  HIT:    2487398  MISS:      79549
LLC LOAD      ACCESS:     130263  HIT:     113174  MISS:      17089
LLC RFO       ACCESS:      45486  HIT:      41824  MISS:       3662
LLC PREFETCH  ACCESS:    2295409  HIT:    2237261  MISS:      58148
LLC WRITEBACK ACCESS:      95789  HIT:      95139  MISS:        650
LLC PREFETCH  REQUESTED:          0  ISSUED:          0  USEFUL:       2489  USELESS:      54957
LLC AVERAGE MISS LATENCY: 160.346 cycles
Major fault: 0 Minor fault: 5920
CPU 0 L1I EPI prefetcher final stats
CPU 0 L1D next line prefetcher final stats

DRAM Statistics
 CHANNEL 0
 RQ ROW_BUFFER_HIT:      23277  ROW_BUFFER_MISS:      55612
 DBUS_CONGESTED:      32077
 WQ ROW_BUFFER_HIT:        630  ROW_BUFFER_MISS:       4173  FULL:          0

 AVG_CONGESTED_CYCLE: 5

CPU 0 Branch Prediction Accuracy: 99.7245% MPKI: 0.51862 Average ROB Occupancy at Mispredict: 147.532

Branch types
NOT_BRANCH: 40586622 81.1732%
BRANCH_DIRECT_JUMP: 525211 1.05042%
BRANCH_INDIRECT: 166359 0.332718%
BRANCH_CONDITIONAL: 6373091 12.7462%
BRANCH_DIRECT_CALL: 989263 1.97853%
BRANCH_INDIRECT_CALL: 184984 0.369968%
BRANCH_RETURN: 1174250 2.3485%
BRANCH_OTHER: 0 0%

