Initialize SIGNATURE TABLE
ST_SET: 1
ST_WAY: 256
ST_TAG_BIT: 16
ST_TAG_MASK: ffff

Initialize PATTERN TABLE
PT_SET: 512
PT_WAY: 4
SIG_DELTA_BIT: 7
C_SIG_BIT: 4
C_DELTA_BIT: 4

Initialize PREFETCH FILTER
FILTER_SET: 1024

*** ChampSim Multicore Out-of-Order Simulator ***

Warmup Instructions: 50000000
Simulation Instructions: 50000000
Number of CPUs: 1
LLC sets: 2048
LLC ways: 16
Off-chip DRAM Size: 4096 MB Channels: 1 Width: 64-bit Data Rate: 3200 MT/s

CPU 0 runs /home/ykhodke/ChampSim/dpc3_traces/server_027.champsimtrace.xz
LHT KB: 126.25
SCC KB: 1.56
Total KB: 127.81
CPU 0 L1D next line prefetcher
Heartbeat CPU 0 instructions: 10000001 cycles: 3529511 heartbeat IPC: 2.83325 cumulative IPC: 2.83325 (Simulation time: 0 hr 0 min 17 sec) 
Heartbeat CPU 0 instructions: 20000001 cycles: 7063567 heartbeat IPC: 2.82961 cumulative IPC: 2.83143 (Simulation time: 0 hr 0 min 33 sec) 
Heartbeat CPU 0 instructions: 30000002 cycles: 10592535 heartbeat IPC: 2.83369 cumulative IPC: 2.83218 (Simulation time: 0 hr 0 min 49 sec) 
Heartbeat CPU 0 instructions: 40000000 cycles: 14126705 heartbeat IPC: 2.82952 cumulative IPC: 2.83152 (Simulation time: 0 hr 1 min 6 sec) 
Heartbeat CPU 0 instructions: 50000001 cycles: 17654939 heartbeat IPC: 2.83428 cumulative IPC: 2.83207 (Simulation time: 0 hr 1 min 22 sec) 

Warmup complete CPU 0 instructions: 50000001 cycles: 17654939 (Simulation time: 0 hr 1 min 22 sec) 

Heartbeat CPU 0 instructions: 60000002 cycles: 24642417 heartbeat IPC: 1.43113 cumulative IPC: 1.43113 (Simulation time: 0 hr 1 min 39 sec) 
Heartbeat CPU 0 instructions: 70000003 cycles: 31586919 heartbeat IPC: 1.43999 cumulative IPC: 1.43555 (Simulation time: 0 hr 1 min 57 sec) 
Heartbeat CPU 0 instructions: 80000002 cycles: 38539373 heartbeat IPC: 1.43834 cumulative IPC: 1.43648 (Simulation time: 0 hr 2 min 15 sec) 
Heartbeat CPU 0 instructions: 90000001 cycles: 45575360 heartbeat IPC: 1.42126 cumulative IPC: 1.43264 (Simulation time: 0 hr 2 min 33 sec) 
Heartbeat CPU 0 instructions: 100000002 cycles: 52511491 heartbeat IPC: 1.44173 cumulative IPC: 1.43445 (Simulation time: 0 hr 2 min 51 sec) 
Finished CPU 0 instructions: 50000001 cycles: 34856552 cumulative IPC: 1.43445 (Simulation time: 0 hr 2 min 51 sec) 

ChampSim completed all CPUs

Region of Interest Statistics

CPU 0 cumulative IPC: 1.43445 instructions: 50000001 cycles: 34856552
L1D TOTAL     ACCESS:   20051527  HIT:   18449629  MISS:    1601898
L1D LOAD      ACCESS:    7021723  HIT:    6329996  MISS:     691727
L1D RFO       ACCESS:    6294483  HIT:    6009157  MISS:     285326
L1D PREFETCH  ACCESS:    6735321  HIT:    6110476  MISS:     624845
L1D WRITEBACK ACCESS:          0  HIT:          0  MISS:          0
L1D PREFETCH  REQUESTED:    7066139  ISSUED:    6941597  USEFUL:     149715  USELESS:     475142
L1D AVERAGE MISS LATENCY: 24.4024 cycles
L1I TOTAL     ACCESS:   24852667  HIT:   19477258  MISS:    5375409
L1I LOAD      ACCESS:    9362417  HIT:    8846732  MISS:     515685
L1I RFO       ACCESS:          0  HIT:          0  MISS:          0
L1I PREFETCH  ACCESS:   15490250  HIT:   10630526  MISS:    4859724
L1I WRITEBACK ACCESS:          0  HIT:          0  MISS:          0
L1I PREFETCH  REQUESTED:   18082865  ISSUED:   18082865  USEFUL:    2454104  USELESS:    2405599
L1I AVERAGE MISS LATENCY: 15.4211 cycles
L2C TOTAL     ACCESS:    9437278  HIT:    8649974  MISS:     787304
L2C LOAD      ACCESS:     755202  HIT:     601881  MISS:     153321
L2C RFO       ACCESS:     283419  HIT:     189880  MISS:      93539
L2C PREFETCH  ACCESS:    7839484  HIT:    7306398  MISS:     533086
L2C WRITEBACK ACCESS:     559173  HIT:     551815  MISS:       7358
L2C PREFETCH  REQUESTED:    5339821  ISSUED:    5332044  USEFUL:      17486  USELESS:     514716
L2C AVERAGE MISS LATENCY: 37.3014 cycles
LLC TOTAL     ACCESS:    2360700  HIT:    2329025  MISS:      31675
LLC LOAD      ACCESS:     153114  HIT:     150006  MISS:       3108
LLC RFO       ACCESS:      93539  HIT:      79599  MISS:      13940
LLC PREFETCH  ACCESS:    1952947  HIT:    1938459  MISS:      14488
LLC WRITEBACK ACCESS:     161100  HIT:     160961  MISS:        139
LLC PREFETCH  REQUESTED:          0  ISSUED:          0  USEFUL:       1054  USELESS:      13033
LLC AVERAGE MISS LATENCY: 187.64 cycles
Major fault: 0 Minor fault: 2492
CPU 0 L1D next line prefetcher final stats

DRAM Statistics
 CHANNEL 0
 RQ ROW_BUFFER_HIT:      10712  ROW_BUFFER_MISS:      20823
 DBUS_CONGESTED:      22527
 WQ ROW_BUFFER_HIT:       1490  ROW_BUFFER_MISS:      14528  FULL:          0

 AVG_CONGESTED_CYCLE: 6

CPU 0 Branch Prediction Accuracy: 99.8082% MPKI: 0.35064 Average ROB Occupancy at Mispredict: 174.278

Branch types
NOT_BRANCH: 40857507 81.715%
BRANCH_DIRECT_JUMP: 526635 1.05327%
BRANCH_INDIRECT: 205902 0.411804%
BRANCH_CONDITIONAL: 6184049 12.3681%
BRANCH_DIRECT_CALL: 938468 1.87694%
BRANCH_INDIRECT_CALL: 174486 0.348972%
BRANCH_RETURN: 1112959 2.22592%
BRANCH_OTHER: 0 0%

