Initialize SIGNATURE TABLE
ST_SET: 1
ST_WAY: 256
ST_TAG_BIT: 16
ST_TAG_MASK: ffff

Initialize PATTERN TABLE
PT_SET: 512
PT_WAY: 4
SIG_DELTA_BIT: 7
C_SIG_BIT: 4
C_DELTA_BIT: 4

Initialize PREFETCH FILTER
FILTER_SET: 1024

*** ChampSim Multicore Out-of-Order Simulator ***

Warmup Instructions: 50000000
Simulation Instructions: 50000000
Number of CPUs: 1
LLC sets: 2048
LLC ways: 16
Off-chip DRAM Size: 4096 MB Channels: 1 Width: 64-bit Data Rate: 3200 MT/s

CPU 0 runs /home/ykhodke/ChampSim/dpc3_traces/server_034.champsimtrace.xz
CPU 0 EPI prefetcher
CPU 0 L1D next line prefetcher
Heartbeat CPU 0 instructions: 10000000 cycles: 3331426 heartbeat IPC: 3.00172 cumulative IPC: 3.00172 (Simulation time: 0 hr 0 min 17 sec) 
Heartbeat CPU 0 instructions: 20000002 cycles: 6655700 heartbeat IPC: 3.00818 cumulative IPC: 3.00494 (Simulation time: 0 hr 0 min 35 sec) 
Heartbeat CPU 0 instructions: 30000003 cycles: 9988224 heartbeat IPC: 3.00073 cumulative IPC: 3.00354 (Simulation time: 0 hr 0 min 54 sec) 
Heartbeat CPU 0 instructions: 40000001 cycles: 13318970 heartbeat IPC: 3.00233 cumulative IPC: 3.00324 (Simulation time: 0 hr 1 min 12 sec) 
Heartbeat CPU 0 instructions: 50000000 cycles: 16648843 heartbeat IPC: 3.00312 cumulative IPC: 3.00321 (Simulation time: 0 hr 1 min 30 sec) 

Warmup complete CPU 0 instructions: 50000002 cycles: 16648844 (Simulation time: 0 hr 1 min 30 sec) 

Heartbeat CPU 0 instructions: 60000002 cycles: 22618870 heartbeat IPC: 1.67503 cumulative IPC: 1.67503 (Simulation time: 0 hr 1 min 49 sec) 
Heartbeat CPU 0 instructions: 70000003 cycles: 29028087 heartbeat IPC: 1.56025 cumulative IPC: 1.61561 (Simulation time: 0 hr 2 min 8 sec) 
Heartbeat CPU 0 instructions: 80000002 cycles: 35072313 heartbeat IPC: 1.65447 cumulative IPC: 1.62836 (Simulation time: 0 hr 2 min 28 sec) 
Heartbeat CPU 0 instructions: 90000002 cycles: 41111867 heartbeat IPC: 1.65575 cumulative IPC: 1.63512 (Simulation time: 0 hr 2 min 48 sec) 
Heartbeat CPU 0 instructions: 100000002 cycles: 47125445 heartbeat IPC: 1.6629 cumulative IPC: 1.6406 (Simulation time: 0 hr 3 min 7 sec) 
Finished CPU 0 instructions: 50000000 cycles: 30476601 cumulative IPC: 1.6406 (Simulation time: 0 hr 3 min 7 sec) 

ChampSim completed all CPUs

Region of Interest Statistics

CPU 0 cumulative IPC: 1.6406 instructions: 50000000 cycles: 30476601
L1D TOTAL     ACCESS:   18227734  HIT:   16803695  MISS:    1424039
L1D LOAD      ACCESS:    6124230  HIT:    5467887  MISS:     656343
L1D RFO       ACCESS:    6163103  HIT:    6020521  MISS:     142582
L1D PREFETCH  ACCESS:    5940401  HIT:    5315287  MISS:     625114
L1D WRITEBACK ACCESS:          0  HIT:          0  MISS:          0
L1D PREFETCH  REQUESTED:    6158570  ISSUED:    6068440  USEFUL:     140717  USELESS:     484365
L1D AVERAGE MISS LATENCY: 18.0595 cycles
L1I TOTAL     ACCESS:   32193378  HIT:   28401790  MISS:    3791588
L1I LOAD      ACCESS:    9665811  HIT:    9641354  MISS:      24457
L1I RFO       ACCESS:          0  HIT:          0  MISS:          0
L1I PREFETCH  ACCESS:   22527567  HIT:   18760436  MISS:    3767131
L1I WRITEBACK ACCESS:          0  HIT:          0  MISS:          0
L1I PREFETCH  REQUESTED:   28320215  ISSUED:   28320215  USEFUL:    3318950  USELESS:     448172
L1I AVERAGE MISS LATENCY: 15.5357 cycles
L2C TOTAL     ACCESS:    7171406  HIT:    7021645  MISS:     149761
L2C LOAD      ACCESS:     665422  HIT:     620904  MISS:      44518
L2C RFO       ACCESS:     140762  HIT:     132136  MISS:       8626
L2C PREFETCH  ACCESS:    6014444  HIT:    5918818  MISS:      95626
L2C WRITEBACK ACCESS:     350778  HIT:     349787  MISS:        991
L2C PREFETCH  REQUESTED:    6481781  ISSUED:    6458653  USEFUL:       2923  USELESS:      91705
L2C AVERAGE MISS LATENCY: 41.5558 cycles
LLC TOTAL     ACCESS:    1971434  HIT:    1954164  MISS:      17270
LLC LOAD      ACCESS:      44422  HIT:      41175  MISS:       3247
LLC RFO       ACCESS:       8625  HIT:       8237  MISS:        388
LLC PREFETCH  ACCESS:    1876890  HIT:    1863376  MISS:      13514
LLC WRITEBACK ACCESS:      41497  HIT:      41376  MISS:        121
LLC PREFETCH  REQUESTED:          0  ISSUED:          0  USEFUL:       3412  USELESS:       8180
LLC AVERAGE MISS LATENCY: 167.659 cycles
Major fault: 0 Minor fault: 1170
CPU 0 L1I EPI prefetcher final stats
CPU 0 L1D next line prefetcher final stats

DRAM Statistics
 CHANNEL 0
 RQ ROW_BUFFER_HIT:       3836  ROW_BUFFER_MISS:      13310
 DBUS_CONGESTED:       7727
 WQ ROW_BUFFER_HIT:       1476  ROW_BUFFER_MISS:       3836  FULL:          0

 AVG_CONGESTED_CYCLE: 5

CPU 0 Branch Prediction Accuracy: 99.926% MPKI: 0.14472 Average ROB Occupancy at Mispredict: 264.285

Branch types
NOT_BRANCH: 40221093 80.4422%
BRANCH_DIRECT_JUMP: 771319 1.54264%
BRANCH_INDIRECT: 108663 0.217326%
BRANCH_CONDITIONAL: 6375046 12.7501%
BRANCH_DIRECT_CALL: 1049638 2.09928%
BRANCH_INDIRECT_CALL: 212283 0.424566%
BRANCH_RETURN: 1261926 2.52385%
BRANCH_OTHER: 0 0%

