Initialize SIGNATURE TABLE
ST_SET: 1
ST_WAY: 256
ST_TAG_BIT: 16
ST_TAG_MASK: ffff

Initialize PATTERN TABLE
PT_SET: 512
PT_WAY: 4
SIG_DELTA_BIT: 7
C_SIG_BIT: 4
C_DELTA_BIT: 4

Initialize PREFETCH FILTER
FILTER_SET: 1024

*** ChampSim Multicore Out-of-Order Simulator ***

Warmup Instructions: 50000000
Simulation Instructions: 50000000
Number of CPUs: 1
LLC sets: 2048
LLC ways: 16
Off-chip DRAM Size: 4096 MB Channels: 1 Width: 64-bit Data Rate: 3200 MT/s

CPU 0 runs /home/ykhodke/ChampSim/dpc3_traces/server_017.champsimtrace.xz
L1I D-JOLT instruction prefetcher has been constructed!
CPU 0 L1D next line prefetcher
Heartbeat CPU 0 instructions: 10000001 cycles: 3622636 heartbeat IPC: 2.76042 cumulative IPC: 2.76042 (Simulation time: 0 hr 0 min 15 sec) 
Heartbeat CPU 0 instructions: 20000000 cycles: 7243242 heartbeat IPC: 2.76197 cumulative IPC: 2.76119 (Simulation time: 0 hr 0 min 30 sec) 
Heartbeat CPU 0 instructions: 30000002 cycles: 10870649 heartbeat IPC: 2.75679 cumulative IPC: 2.75973 (Simulation time: 0 hr 0 min 46 sec) 
Heartbeat CPU 0 instructions: 40000000 cycles: 14493234 heartbeat IPC: 2.76046 cumulative IPC: 2.75991 (Simulation time: 0 hr 1 min 2 sec) 
Heartbeat CPU 0 instructions: 50000001 cycles: 18127034 heartbeat IPC: 2.75194 cumulative IPC: 2.75831 (Simulation time: 0 hr 1 min 17 sec) 

Warmup complete CPU 0 instructions: 50000001 cycles: 18127034 (Simulation time: 0 hr 1 min 17 sec) 

Heartbeat CPU 0 instructions: 60000002 cycles: 35468565 heartbeat IPC: 0.57665 cumulative IPC: 0.57665 (Simulation time: 0 hr 1 min 39 sec) 
Heartbeat CPU 0 instructions: 70000002 cycles: 52982254 heartbeat IPC: 0.570982 cumulative IPC: 0.573802 (Simulation time: 0 hr 2 min 0 sec) 
Heartbeat CPU 0 instructions: 80000000 cycles: 70300082 heartbeat IPC: 0.577439 cumulative IPC: 0.57501 (Simulation time: 0 hr 2 min 22 sec) 
Heartbeat CPU 0 instructions: 90000002 cycles: 93487662 heartbeat IPC: 0.431265 cumulative IPC: 0.530781 (Simulation time: 0 hr 2 min 43 sec) 
Heartbeat CPU 0 instructions: 100000003 cycles: 113396104 heartbeat IPC: 0.5023 cumulative IPC: 0.524829 (Simulation time: 0 hr 3 min 4 sec) 
Finished CPU 0 instructions: 50000002 cycles: 95269070 cumulative IPC: 0.524829 (Simulation time: 0 hr 3 min 4 sec) 

ChampSim completed all CPUs

Region of Interest Statistics

CPU 0 cumulative IPC: 0.524829 instructions: 50000002 cycles: 95269070
L1D TOTAL     ACCESS:   18376259  HIT:   16210800  MISS:    2165459
L1D LOAD      ACCESS:    7024481  HIT:    6280894  MISS:     743587
L1D RFO       ACCESS:    5514288  HIT:    4655060  MISS:     859228
L1D PREFETCH  ACCESS:    5837490  HIT:    5274846  MISS:     562644
L1D WRITEBACK ACCESS:          0  HIT:          0  MISS:          0
L1D PREFETCH  REQUESTED:    7061285  ISSUED:    6870906  USEFUL:     200361  USELESS:     362344
L1D AVERAGE MISS LATENCY: 177.521 cycles
L1I TOTAL     ACCESS:   17505654  HIT:   14497726  MISS:    3007928
L1I LOAD      ACCESS:    9906068  HIT:    9869404  MISS:      36664
L1I RFO       ACCESS:          0  HIT:          0  MISS:          0
L1I PREFETCH  ACCESS:    7599586  HIT:    4628322  MISS:    2971264
L1I WRITEBACK ACCESS:          0  HIT:          0  MISS:          0
L1I PREFETCH  REQUESTED:    8144488  ISSUED:    8108953  USEFUL:    2423982  USELESS:     547291
L1I AVERAGE MISS LATENCY: 18.13 cycles
L2C TOTAL     ACCESS:    7616113  HIT:    5770677  MISS:    1845436
L2C LOAD      ACCESS:     571373  HIT:     241506  MISS:     329867
L2C RFO       ACCESS:     858722  HIT:      17740  MISS:     840982
L2C PREFETCH  ACCESS:    5063113  HIT:    4390508  MISS:     672605
L2C WRITEBACK ACCESS:    1122905  HIT:    1120923  MISS:       1982
L2C PREFETCH  REQUESTED:    4705306  ISSUED:    4700708  USEFUL:      20965  USELESS:     652331
L2C AVERAGE MISS LATENCY: 211.909 cycles
LLC TOTAL     ACCESS:    4163901  HIT:    2644764  MISS:    1519137
LLC LOAD      ACCESS:     329784  HIT:     174621  MISS:     155163
LLC RFO       ACCESS:     840982  HIT:     122433  MISS:     718549
LLC PREFETCH  ACCESS:    1931236  HIT:    1287903  MISS:     643333
LLC WRITEBACK ACCESS:    1061899  HIT:    1059807  MISS:       2092
LLC PREFETCH  REQUESTED:          0  ISSUED:          0  USEFUL:      48246  USELESS:     594296
LLC AVERAGE MISS LATENCY: 271.397 cycles
Major fault: 0 Minor fault: 24698
CPU 0 L1D next line prefetcher final stats

DRAM Statistics
 CHANNEL 0
 RQ ROW_BUFFER_HIT:     372589  ROW_BUFFER_MISS:    1144255
 DBUS_CONGESTED:    1470167
 WQ ROW_BUFFER_HIT:     245712  ROW_BUFFER_MISS:     632057  FULL:          0

 AVG_CONGESTED_CYCLE: 6

CPU 0 Branch Prediction Accuracy: 99.2833% MPKI: 1.20568 Average ROB Occupancy at Mispredict: 182.29

Branch types
NOT_BRANCH: 41588346 83.1767%
BRANCH_DIRECT_JUMP: 464501 0.929002%
BRANCH_INDIRECT: 45704 0.091408%
BRANCH_CONDITIONAL: 6147408 12.2948%
BRANCH_DIRECT_CALL: 675450 1.3509%
BRANCH_INDIRECT_CALL: 201532 0.403064%
BRANCH_RETURN: 876985 1.75397%
BRANCH_OTHER: 0 0%

