Initialize SIGNATURE TABLE
ST_SET: 1
ST_WAY: 256
ST_TAG_BIT: 16
ST_TAG_MASK: ffff

Initialize PATTERN TABLE
PT_SET: 512
PT_WAY: 4
SIG_DELTA_BIT: 7
C_SIG_BIT: 4
C_DELTA_BIT: 4

Initialize PREFETCH FILTER
FILTER_SET: 1024

*** ChampSim Multicore Out-of-Order Simulator ***

Warmup Instructions: 50000000
Simulation Instructions: 50000000
Number of CPUs: 1
LLC sets: 2048
LLC ways: 16
Off-chip DRAM Size: 4096 MB Channels: 1 Width: 64-bit Data Rate: 3200 MT/s

CPU 0 runs /home/ykhodke/ChampSim/dpc3_traces/server_029.champsimtrace.xz
LHT KB: 126.25
SCC KB: 1.56
Total KB: 127.81
CPU 0 L1D next line prefetcher
Heartbeat CPU 0 instructions: 10000001 cycles: 3494053 heartbeat IPC: 2.86201 cumulative IPC: 2.86201 (Simulation time: 0 hr 0 min 16 sec) 
Heartbeat CPU 0 instructions: 20000002 cycles: 6988070 heartbeat IPC: 2.86204 cumulative IPC: 2.86202 (Simulation time: 0 hr 0 min 32 sec) 
Heartbeat CPU 0 instructions: 30000003 cycles: 10484215 heartbeat IPC: 2.86029 cumulative IPC: 2.86144 (Simulation time: 0 hr 0 min 48 sec) 
Heartbeat CPU 0 instructions: 40000000 cycles: 13987535 heartbeat IPC: 2.85443 cumulative IPC: 2.85969 (Simulation time: 0 hr 1 min 4 sec) 
Heartbeat CPU 0 instructions: 50000000 cycles: 17489881 heartbeat IPC: 2.85523 cumulative IPC: 2.8588 (Simulation time: 0 hr 1 min 20 sec) 

Warmup complete CPU 0 instructions: 50000004 cycles: 17489882 (Simulation time: 0 hr 1 min 20 sec) 

Heartbeat CPU 0 instructions: 60000000 cycles: 25029155 heartbeat IPC: 1.32639 cumulative IPC: 1.32639 (Simulation time: 0 hr 1 min 39 sec) 
Heartbeat CPU 0 instructions: 70000003 cycles: 32724443 heartbeat IPC: 1.2995 cumulative IPC: 1.3128 (Simulation time: 0 hr 1 min 57 sec) 
Heartbeat CPU 0 instructions: 80000002 cycles: 40254371 heartbeat IPC: 1.32803 cumulative IPC: 1.31784 (Simulation time: 0 hr 2 min 15 sec) 
*** Reached end of trace for Core: 0 Repeating trace: /home/ykhodke/ChampSim/dpc3_traces/server_029.champsimtrace.xz
Heartbeat CPU 0 instructions: 90000000 cycles: 47715195 heartbeat IPC: 1.34033 cumulative IPC: 1.32339 (Simulation time: 0 hr 2 min 33 sec) 
Heartbeat CPU 0 instructions: 100000003 cycles: 55170106 heartbeat IPC: 1.3414 cumulative IPC: 1.32696 (Simulation time: 0 hr 2 min 51 sec) 
Finished CPU 0 instructions: 50000003 cycles: 37680225 cumulative IPC: 1.32696 (Simulation time: 0 hr 2 min 51 sec) 

ChampSim completed all CPUs

Region of Interest Statistics

CPU 0 cumulative IPC: 1.32696 instructions: 50000003 cycles: 37680225
L1D TOTAL     ACCESS:   19123996  HIT:   17027328  MISS:    2096668
L1D LOAD      ACCESS:    6760589  HIT:    5695781  MISS:    1064808
L1D RFO       ACCESS:    6119680  HIT:    5834638  MISS:     285042
L1D PREFETCH  ACCESS:    6243727  HIT:    5496909  MISS:     746818
L1D WRITEBACK ACCESS:          0  HIT:          0  MISS:          0
L1D PREFETCH  REQUESTED:    6821760  ISSUED:    6714772  USEFUL:     176500  USELESS:     570308
L1D AVERAGE MISS LATENCY: 21.3779 cycles
L1I TOTAL     ACCESS:   25823063  HIT:   20668096  MISS:    5154967
L1I LOAD      ACCESS:    9671400  HIT:    9176258  MISS:     495142
L1I RFO       ACCESS:          0  HIT:          0  MISS:          0
L1I PREFETCH  ACCESS:   16151663  HIT:   11491838  MISS:    4659825
L1I WRITEBACK ACCESS:          0  HIT:          0  MISS:          0
L1I PREFETCH  REQUESTED:   18635367  ISSUED:   18635367  USEFUL:    2595997  USELESS:    2063829
L1I AVERAGE MISS LATENCY: 14.8267 cycles
L2C TOTAL     ACCESS:    9993519  HIT:    9390866  MISS:     602653
L2C LOAD      ACCESS:     995985  HIT:     846963  MISS:     149022
L2C RFO       ACCESS:     283518  HIT:     234996  MISS:      48522
L2C PREFETCH  ACCESS:    8103414  HIT:    7699638  MISS:     403776
L2C WRITEBACK ACCESS:     610602  HIT:     609269  MISS:       1333
L2C PREFETCH  REQUESTED:    5855628  ISSUED:    5846320  USEFUL:      11636  USELESS:     391516
L2C AVERAGE MISS LATENCY: 42.765 cycles
LLC TOTAL     ACCESS:    2046647  HIT:    1981399  MISS:      65248
LLC LOAD      ACCESS:     148866  HIT:     132342  MISS:      16524
LLC RFO       ACCESS:      48520  HIT:      44932  MISS:       3588
LLC PREFETCH  ACCESS:    1755680  HIT:    1711113  MISS:      44567
LLC WRITEBACK ACCESS:      93581  HIT:      93012  MISS:        569
LLC PREFETCH  REQUESTED:          0  ISSUED:          0  USEFUL:       2153  USELESS:      42825
LLC AVERAGE MISS LATENCY: 156.181 cycles
Major fault: 0 Minor fault: 5934
CPU 0 L1D next line prefetcher final stats

DRAM Statistics
 CHANNEL 0
 RQ ROW_BUFFER_HIT:      18896  ROW_BUFFER_MISS:      45754
 DBUS_CONGESTED:      25340
 WQ ROW_BUFFER_HIT:        557  ROW_BUFFER_MISS:       4067  FULL:          0

 AVG_CONGESTED_CYCLE: 4

CPU 0 Branch Prediction Accuracy: 99.7245% MPKI: 0.51862 Average ROB Occupancy at Mispredict: 143.607

Branch types
NOT_BRANCH: 40586621 81.1732%
BRANCH_DIRECT_JUMP: 525211 1.05042%
BRANCH_INDIRECT: 166359 0.332718%
BRANCH_CONDITIONAL: 6373091 12.7462%
BRANCH_DIRECT_CALL: 989262 1.97852%
BRANCH_INDIRECT_CALL: 184984 0.369968%
BRANCH_RETURN: 1174250 2.3485%
BRANCH_OTHER: 0 0%

