Initialize SIGNATURE TABLE
ST_SET: 1
ST_WAY: 256
ST_TAG_BIT: 16
ST_TAG_MASK: ffff

Initialize PATTERN TABLE
PT_SET: 512
PT_WAY: 4
SIG_DELTA_BIT: 7
C_SIG_BIT: 4
C_DELTA_BIT: 4

Initialize PREFETCH FILTER
FILTER_SET: 1024

*** ChampSim Multicore Out-of-Order Simulator ***

Warmup Instructions: 50000000
Simulation Instructions: 50000000
Number of CPUs: 1
LLC sets: 2048
LLC ways: 16
Off-chip DRAM Size: 4096 MB Channels: 1 Width: 64-bit Data Rate: 3200 MT/s

CPU 0 runs /home/ykhodke/ChampSim/dpc3_traces/server_019.champsimtrace.xz
LHT KB: 126.25
SCC KB: 1.56
Total KB: 127.81
CPU 0 L1D next line prefetcher
Heartbeat CPU 0 instructions: 10000002 cycles: 3623668 heartbeat IPC: 2.75964 cumulative IPC: 2.75964 (Simulation time: 0 hr 0 min 17 sec) 
Heartbeat CPU 0 instructions: 20000003 cycles: 7248038 heartbeat IPC: 2.7591 cumulative IPC: 2.75937 (Simulation time: 0 hr 0 min 33 sec) 
Heartbeat CPU 0 instructions: 30000002 cycles: 10871463 heartbeat IPC: 2.75982 cumulative IPC: 2.75952 (Simulation time: 0 hr 0 min 50 sec) 
Heartbeat CPU 0 instructions: 40000002 cycles: 14506772 heartbeat IPC: 2.7508 cumulative IPC: 2.75733 (Simulation time: 0 hr 1 min 6 sec) 
Heartbeat CPU 0 instructions: 50000001 cycles: 18130139 heartbeat IPC: 2.75986 cumulative IPC: 2.75784 (Simulation time: 0 hr 1 min 22 sec) 

Warmup complete CPU 0 instructions: 50000001 cycles: 18130139 (Simulation time: 0 hr 1 min 22 sec) 

Heartbeat CPU 0 instructions: 60000000 cycles: 38433656 heartbeat IPC: 0.492525 cumulative IPC: 0.492525 (Simulation time: 0 hr 1 min 47 sec) 
Heartbeat CPU 0 instructions: 70000002 cycles: 62360602 heartbeat IPC: 0.417939 cumulative IPC: 0.452177 (Simulation time: 0 hr 2 min 10 sec) 
Heartbeat CPU 0 instructions: 80000001 cycles: 83325919 heartbeat IPC: 0.476978 cumulative IPC: 0.460152 (Simulation time: 0 hr 2 min 33 sec) 
Heartbeat CPU 0 instructions: 90000002 cycles: 101493593 heartbeat IPC: 0.550428 cumulative IPC: 0.479827 (Simulation time: 0 hr 2 min 56 sec) 
Heartbeat CPU 0 instructions: 100000002 cycles: 119604817 heartbeat IPC: 0.552144 cumulative IPC: 0.492734 (Simulation time: 0 hr 3 min 19 sec) 
Finished CPU 0 instructions: 50000001 cycles: 101474678 cumulative IPC: 0.492734 (Simulation time: 0 hr 3 min 19 sec) 

ChampSim completed all CPUs

Region of Interest Statistics

CPU 0 cumulative IPC: 0.492734 instructions: 50000001 cycles: 101474678
L1D TOTAL     ACCESS:   18333552  HIT:   16109891  MISS:    2223661
L1D LOAD      ACCESS:    6979164  HIT:    6214126  MISS:     765038
L1D RFO       ACCESS:    5550129  HIT:    4647966  MISS:     902163
L1D PREFETCH  ACCESS:    5804259  HIT:    5247799  MISS:     556460
L1D WRITEBACK ACCESS:          0  HIT:          0  MISS:          0
L1D PREFETCH  REQUESTED:    7017819  ISSUED:    6832855  USEFUL:     187248  USELESS:     369120
L1D AVERAGE MISS LATENCY: 186.468 cycles
L1I TOTAL     ACCESS:   22789536  HIT:   20033718  MISS:    2755818
L1I LOAD      ACCESS:    9822758  HIT:    9636304  MISS:     186454
L1I RFO       ACCESS:          0  HIT:          0  MISS:          0
L1I PREFETCH  ACCESS:   12966778  HIT:   10397414  MISS:    2569364
L1I WRITEBACK ACCESS:          0  HIT:          0  MISS:          0
L1I PREFETCH  REQUESTED:   14420943  ISSUED:   14420926  USEFUL:    1940717  USELESS:     628595
L1I AVERAGE MISS LATENCY: 17.149 cycles
L2C TOTAL     ACCESS:    7180365  HIT:    5285915  MISS:    1894450
L2C LOAD      ACCESS:     583836  HIT:     249392  MISS:     334444
L2C RFO       ACCESS:     901501  HIT:      18122  MISS:     883379
L2C PREFETCH  ACCESS:    4520392  HIT:    3846217  MISS:     674175
L2C WRITEBACK ACCESS:    1174636  HIT:    1172184  MISS:       2452
L2C PREFETCH  REQUESTED:    3332846  ISSUED:    3332143  USEFUL:      23270  USELESS:     649465
L2C AVERAGE MISS LATENCY: 224.274 cycles
LLC TOTAL     ACCESS:    3957077  HIT:    2390601  MISS:    1566476
LLC LOAD      ACCESS:     334431  HIT:     167721  MISS:     166710
LLC RFO       ACCESS:     883379  HIT:     116397  MISS:     766982
LLC PREFETCH  ACCESS:    1628352  HIT:     997836  MISS:     630516
LLC WRITEBACK ACCESS:    1110915  HIT:    1108647  MISS:       2268
LLC PREFETCH  REQUESTED:          0  ISSUED:          0  USEFUL:      47413  USELESS:     582168
LLC AVERAGE MISS LATENCY: 273.815 cycles
Major fault: 0 Minor fault: 25701
CPU 0 L1D next line prefetcher final stats

DRAM Statistics
 CHANNEL 0
 RQ ROW_BUFFER_HIT:     377830  ROW_BUFFER_MISS:    1186231
 DBUS_CONGESTED:    1535168
 WQ ROW_BUFFER_HIT:     282871  ROW_BUFFER_MISS:     651376  FULL:          0

 AVG_CONGESTED_CYCLE: 6

CPU 0 Branch Prediction Accuracy: 99.2186% MPKI: 1.32192 Average ROB Occupancy at Mispredict: 179.01

Branch types
NOT_BRANCH: 41540785 83.0816%
BRANCH_DIRECT_JUMP: 462384 0.924768%
BRANCH_INDIRECT: 45460 0.09092%
BRANCH_CONDITIONAL: 6209281 12.4186%
BRANCH_DIRECT_CALL: 666241 1.33248%
BRANCH_INDIRECT_CALL: 204728 0.409456%
BRANCH_RETURN: 870978 1.74196%
BRANCH_OTHER: 0 0%

