Initialize SIGNATURE TABLE
ST_SET: 1
ST_WAY: 256
ST_TAG_BIT: 16
ST_TAG_MASK: ffff

Initialize PATTERN TABLE
PT_SET: 512
PT_WAY: 4
SIG_DELTA_BIT: 7
C_SIG_BIT: 4
C_DELTA_BIT: 4

Initialize PREFETCH FILTER
FILTER_SET: 1024

*** ChampSim Multicore Out-of-Order Simulator ***

Warmup Instructions: 50000000
Simulation Instructions: 50000000
Number of CPUs: 1
LLC sets: 2048
LLC ways: 16
Off-chip DRAM Size: 4096 MB Channels: 1 Width: 64-bit Data Rate: 3200 MT/s

CPU 0 runs /home/ykhodke/ChampSim/dpc3_traces/server_028.champsimtrace.xz
CPU 0 EPI prefetcher
CPU 0 L1D next line prefetcher
Heartbeat CPU 0 instructions: 10000001 cycles: 3494176 heartbeat IPC: 2.86191 cumulative IPC: 2.86191 (Simulation time: 0 hr 0 min 19 sec) 
Heartbeat CPU 0 instructions: 20000002 cycles: 6988849 heartbeat IPC: 2.8615 cumulative IPC: 2.8617 (Simulation time: 0 hr 0 min 38 sec) 
Heartbeat CPU 0 instructions: 30000001 cycles: 10481884 heartbeat IPC: 2.86284 cumulative IPC: 2.86208 (Simulation time: 0 hr 0 min 57 sec) 
Heartbeat CPU 0 instructions: 40000002 cycles: 13981728 heartbeat IPC: 2.85727 cumulative IPC: 2.86088 (Simulation time: 0 hr 1 min 15 sec) 
Heartbeat CPU 0 instructions: 50000001 cycles: 17477421 heartbeat IPC: 2.86066 cumulative IPC: 2.86083 (Simulation time: 0 hr 1 min 34 sec) 

Warmup complete CPU 0 instructions: 50000001 cycles: 17477421 (Simulation time: 0 hr 1 min 34 sec) 

Heartbeat CPU 0 instructions: 60000000 cycles: 24943877 heartbeat IPC: 1.33932 cumulative IPC: 1.33932 (Simulation time: 0 hr 1 min 54 sec) 
Heartbeat CPU 0 instructions: 70000000 cycles: 32404365 heartbeat IPC: 1.34039 cumulative IPC: 1.33986 (Simulation time: 0 hr 2 min 13 sec) 
Heartbeat CPU 0 instructions: 80000000 cycles: 39874898 heartbeat IPC: 1.33859 cumulative IPC: 1.33944 (Simulation time: 0 hr 2 min 34 sec) 
*** Reached end of trace for Core: 0 Repeating trace: /home/ykhodke/ChampSim/dpc3_traces/server_028.champsimtrace.xz
Heartbeat CPU 0 instructions: 90000000 cycles: 47322343 heartbeat IPC: 1.34274 cumulative IPC: 1.34026 (Simulation time: 0 hr 2 min 55 sec) 
Heartbeat CPU 0 instructions: 100000003 cycles: 54722128 heartbeat IPC: 1.35139 cumulative IPC: 1.34247 (Simulation time: 0 hr 3 min 15 sec) 
Finished CPU 0 instructions: 50000002 cycles: 37244707 cumulative IPC: 1.34247 (Simulation time: 0 hr 3 min 15 sec) 

ChampSim completed all CPUs

Region of Interest Statistics

CPU 0 cumulative IPC: 1.34247 instructions: 50000002 cycles: 37244707
L1D TOTAL     ACCESS:   19030534  HIT:   16957150  MISS:    2073384
L1D LOAD      ACCESS:    6719390  HIT:    5671785  MISS:    1047605
L1D RFO       ACCESS:    6101384  HIT:    5817724  MISS:     283660
L1D PREFETCH  ACCESS:    6209760  HIT:    5467641  MISS:     742119
L1D WRITEBACK ACCESS:          0  HIT:          0  MISS:          0
L1D PREFETCH  REQUESTED:    6777497  ISSUED:    6668859  USEFUL:     175542  USELESS:     566580
L1D AVERAGE MISS LATENCY: 21.5961 cycles
L1I TOTAL     ACCESS:   30426305  HIT:   26995467  MISS:    3430838
L1I LOAD      ACCESS:    9776028  HIT:    9738142  MISS:      37886
L1I RFO       ACCESS:          0  HIT:          0  MISS:          0
L1I PREFETCH  ACCESS:   20650277  HIT:   17257325  MISS:    3392952
L1I WRITEBACK ACCESS:          0  HIT:          0  MISS:          0
L1I PREFETCH  REQUESTED:   26159623  ISSUED:   26159623  USEFUL:    2894469  USELESS:     498470
L1I AVERAGE MISS LATENCY: 18.352 cycles
L2C TOTAL     ACCESS:    7792426  HIT:    7102473  MISS:     689953
L2C LOAD      ACCESS:     917087  HIT:     767945  MISS:     149142
L2C RFO       ACCESS:     281700  HIT:     226929  MISS:      54771
L2C PREFETCH  ACCESS:    5988608  HIT:    5503924  MISS:     484684
L2C WRITEBACK ACCESS:     605031  HIT:     603675  MISS:       1356
L2C PREFETCH  REQUESTED:    6722273  ISSUED:    6691856  USEFUL:       9349  USELESS:     474922
L2C AVERAGE MISS LATENCY: 41.7018 cycles
LLC TOTAL     ACCESS:    2749658  HIT:    2666666  MISS:      82992
LLC LOAD      ACCESS:     149025  HIT:     132700  MISS:      16325
LLC RFO       ACCESS:      54765  HIT:      52737  MISS:       2028
LLC PREFETCH  ACCESS:    2447924  HIT:    2383753  MISS:      64171
LLC WRITEBACK ACCESS:      97944  HIT:      97476  MISS:        468
LLC PREFETCH  REQUESTED:          0  ISSUED:          0  USEFUL:       2451  USELESS:      59653
LLC AVERAGE MISS LATENCY: 163.802 cycles
Major fault: 0 Minor fault: 6039
CPU 0 L1I EPI prefetcher final stats
CPU 0 L1D next line prefetcher final stats

DRAM Statistics
 CHANNEL 0
 RQ ROW_BUFFER_HIT:      24628  ROW_BUFFER_MISS:      57895
 DBUS_CONGESTED:      30747
 WQ ROW_BUFFER_HIT:        539  ROW_BUFFER_MISS:       3411  FULL:          0

 AVG_CONGESTED_CYCLE: 5

CPU 0 Branch Prediction Accuracy: 99.7093% MPKI: 0.54708 Average ROB Occupancy at Mispredict: 152.401

Branch types
NOT_BRANCH: 40590941 81.1819%
BRANCH_DIRECT_JUMP: 523494 1.04699%
BRANCH_INDIRECT: 166997 0.333994%
BRANCH_CONDITIONAL: 6365187 12.7304%
BRANCH_DIRECT_CALL: 989494 1.97899%
BRANCH_INDIRECT_CALL: 187203 0.374406%
BRANCH_RETURN: 1176698 2.3534%
BRANCH_OTHER: 0 0%

