Initialize SIGNATURE TABLE
ST_SET: 1
ST_WAY: 256
ST_TAG_BIT: 16
ST_TAG_MASK: ffff

Initialize PATTERN TABLE
PT_SET: 512
PT_WAY: 4
SIG_DELTA_BIT: 7
C_SIG_BIT: 4
C_DELTA_BIT: 4

Initialize PREFETCH FILTER
FILTER_SET: 1024

*** ChampSim Multicore Out-of-Order Simulator ***

Warmup Instructions: 50000000
Simulation Instructions: 50000000
Number of CPUs: 1
LLC sets: 2048
LLC ways: 16
Off-chip DRAM Size: 4096 MB Channels: 1 Width: 64-bit Data Rate: 3200 MT/s

CPU 0 runs /home/ykhodke/ChampSim/dpc3_traces/server_022.champsimtrace.xz
L1I D-JOLT instruction prefetcher has been constructed!
CPU 0 L1D next line prefetcher
Heartbeat CPU 0 instructions: 10000002 cycles: 3623597 heartbeat IPC: 2.75969 cumulative IPC: 2.75969 (Simulation time: 0 hr 0 min 15 sec) 
Heartbeat CPU 0 instructions: 20000001 cycles: 7253890 heartbeat IPC: 2.7546 cumulative IPC: 2.75714 (Simulation time: 0 hr 0 min 30 sec) 
Heartbeat CPU 0 instructions: 30000003 cycles: 10877817 heartbeat IPC: 2.75944 cumulative IPC: 2.75791 (Simulation time: 0 hr 0 min 46 sec) 
Heartbeat CPU 0 instructions: 40000003 cycles: 14508978 heartbeat IPC: 2.75394 cumulative IPC: 2.75691 (Simulation time: 0 hr 1 min 1 sec) 
Heartbeat CPU 0 instructions: 50000002 cycles: 18130109 heartbeat IPC: 2.76157 cumulative IPC: 2.75784 (Simulation time: 0 hr 1 min 17 sec) 

Warmup complete CPU 0 instructions: 50000002 cycles: 18130109 (Simulation time: 0 hr 1 min 17 sec) 

Heartbeat CPU 0 instructions: 60000000 cycles: 34824397 heartbeat IPC: 0.599007 cumulative IPC: 0.599007 (Simulation time: 0 hr 1 min 38 sec) 
Heartbeat CPU 0 instructions: 70000001 cycles: 51665058 heartbeat IPC: 0.593801 cumulative IPC: 0.596393 (Simulation time: 0 hr 2 min 0 sec) 
Heartbeat CPU 0 instructions: 80000001 cycles: 68226104 heartbeat IPC: 0.603827 cumulative IPC: 0.59885 (Simulation time: 0 hr 2 min 21 sec) 
Heartbeat CPU 0 instructions: 90000003 cycles: 85058381 heartbeat IPC: 0.594097 cumulative IPC: 0.597655 (Simulation time: 0 hr 2 min 42 sec) 
Heartbeat CPU 0 instructions: 100000003 cycles: 101739898 heartbeat IPC: 0.599466 cumulative IPC: 0.598016 (Simulation time: 0 hr 3 min 4 sec) 
Finished CPU 0 instructions: 50000001 cycles: 83609789 cumulative IPC: 0.598016 (Simulation time: 0 hr 3 min 4 sec) 

ChampSim completed all CPUs

Region of Interest Statistics

CPU 0 cumulative IPC: 0.598016 instructions: 50000001 cycles: 83609789
L1D TOTAL     ACCESS:   18689162  HIT:   16478333  MISS:    2210829
L1D LOAD      ACCESS:    7050750  HIT:    6345906  MISS:     704844
L1D RFO       ACCESS:    5884344  HIT:    4904854  MISS:     979490
L1D PREFETCH  ACCESS:    5754068  HIT:    5227573  MISS:     526495
L1D WRITEBACK ACCESS:          0  HIT:          0  MISS:          0
L1D PREFETCH  REQUESTED:    7092862  ISSUED:    6886269  USEFUL:     205222  USELESS:     321278
L1D AVERAGE MISS LATENCY: 181.967 cycles
L1I TOTAL     ACCESS:   18901500  HIT:   15370155  MISS:    3531345
L1I LOAD      ACCESS:   10173296  HIT:   10134676  MISS:      38620
L1I RFO       ACCESS:          0  HIT:          0  MISS:          0
L1I PREFETCH  ACCESS:    8728204  HIT:    5235479  MISS:    3492725
L1I WRITEBACK ACCESS:          0  HIT:          0  MISS:          0
L1I PREFETCH  REQUESTED:    9393484  ISSUED:    9318848  USEFUL:    2789742  USELESS:     703000
L1I AVERAGE MISS LATENCY: 17.3557 cycles
L2C TOTAL     ACCESS:    8433861  HIT:    6567193  MISS:    1866668
L2C LOAD      ACCESS:     509333  HIT:     262936  MISS:     246397
L2C RFO       ACCESS:     978983  HIT:      20493  MISS:     958490
L2C PREFETCH  ACCESS:    5760378  HIT:    5101399  MISS:     658979
L2C WRITEBACK ACCESS:    1185167  HIT:    1182365  MISS:       2802
L2C PREFETCH  REQUESTED:    5108474  ISSUED:    5103915  USEFUL:      19288  USELESS:     639687
L2C AVERAGE MISS LATENCY: 220.854 cycles
LLC TOTAL     ACCESS:    4246000  HIT:    2853990  MISS:    1392010
LLC LOAD      ACCESS:     246335  HIT:     174425  MISS:      71910
LLC RFO       ACCESS:     958490  HIT:     141289  MISS:     817201
LLC PREFETCH  ACCESS:    1922526  HIT:    1421605  MISS:     500921
LLC WRITEBACK ACCESS:    1118649  HIT:    1116671  MISS:       1978
LLC PREFETCH  REQUESTED:          0  ISSUED:          0  USEFUL:      27159  USELESS:     474484
LLC AVERAGE MISS LATENCY: 298.097 cycles
Major fault: 0 Minor fault: 23508
CPU 0 L1D next line prefetcher final stats

DRAM Statistics
 CHANNEL 0
 RQ ROW_BUFFER_HIT:     397522  ROW_BUFFER_MISS:     992202
 DBUS_CONGESTED:    1446256
 WQ ROW_BUFFER_HIT:     260519  ROW_BUFFER_MISS:     638557  FULL:          0

 AVG_CONGESTED_CYCLE: 6

CPU 0 Branch Prediction Accuracy: 99.8317% MPKI: 0.27564 Average ROB Occupancy at Mispredict: 222.971

Branch types
NOT_BRANCH: 41811146 83.6223%
BRANCH_DIRECT_JUMP: 445742 0.891484%
BRANCH_INDIRECT: 48876 0.097752%
BRANCH_CONDITIONAL: 5859407 11.7188%
BRANCH_DIRECT_CALL: 758267 1.51653%
BRANCH_INDIRECT_CALL: 159103 0.318206%
BRANCH_RETURN: 917372 1.83474%
BRANCH_OTHER: 0 0%

