Initialize SIGNATURE TABLE
ST_SET: 1
ST_WAY: 256
ST_TAG_BIT: 16
ST_TAG_MASK: ffff

Initialize PATTERN TABLE
PT_SET: 512
PT_WAY: 4
SIG_DELTA_BIT: 7
C_SIG_BIT: 4
C_DELTA_BIT: 4

Initialize PREFETCH FILTER
FILTER_SET: 1024

*** ChampSim Multicore Out-of-Order Simulator ***

Warmup Instructions: 50000000
Simulation Instructions: 50000000
Number of CPUs: 1
LLC sets: 2048
LLC ways: 16
Off-chip DRAM Size: 4096 MB Channels: 1 Width: 64-bit Data Rate: 3200 MT/s

CPU 0 runs /home/ykhodke/ChampSim/dpc3_traces/server_019.champsimtrace.xz
L1I D-JOLT instruction prefetcher has been constructed!
CPU 0 L1D next line prefetcher
Heartbeat CPU 0 instructions: 10000002 cycles: 3622615 heartbeat IPC: 2.76044 cumulative IPC: 2.76044 (Simulation time: 0 hr 0 min 16 sec) 
Heartbeat CPU 0 instructions: 20000003 cycles: 7247034 heartbeat IPC: 2.75906 cumulative IPC: 2.75975 (Simulation time: 0 hr 0 min 32 sec) 
Heartbeat CPU 0 instructions: 30000002 cycles: 10870287 heartbeat IPC: 2.75995 cumulative IPC: 2.75982 (Simulation time: 0 hr 0 min 47 sec) 
Heartbeat CPU 0 instructions: 40000002 cycles: 14505537 heartbeat IPC: 2.75084 cumulative IPC: 2.75757 (Simulation time: 0 hr 1 min 3 sec) 
Heartbeat CPU 0 instructions: 50000001 cycles: 18129319 heartbeat IPC: 2.75955 cumulative IPC: 2.75796 (Simulation time: 0 hr 1 min 18 sec) 

Warmup complete CPU 0 instructions: 50000001 cycles: 18129319 (Simulation time: 0 hr 1 min 18 sec) 

Heartbeat CPU 0 instructions: 60000000 cycles: 37929459 heartbeat IPC: 0.505047 cumulative IPC: 0.505047 (Simulation time: 0 hr 1 min 41 sec) 
Heartbeat CPU 0 instructions: 70000002 cycles: 61458893 heartbeat IPC: 0.425 cumulative IPC: 0.461579 (Simulation time: 0 hr 2 min 2 sec) 
Heartbeat CPU 0 instructions: 80000001 cycles: 81988292 heartbeat IPC: 0.487106 cumulative IPC: 0.469785 (Simulation time: 0 hr 2 min 24 sec) 
Heartbeat CPU 0 instructions: 90000002 cycles: 99514115 heartbeat IPC: 0.570587 cumulative IPC: 0.491492 (Simulation time: 0 hr 2 min 45 sec) 
Heartbeat CPU 0 instructions: 100000002 cycles: 117025738 heartbeat IPC: 0.571049 cumulative IPC: 0.505579 (Simulation time: 0 hr 3 min 7 sec) 
Finished CPU 0 instructions: 50000001 cycles: 98896419 cumulative IPC: 0.505579 (Simulation time: 0 hr 3 min 7 sec) 

ChampSim completed all CPUs

Region of Interest Statistics

CPU 0 cumulative IPC: 0.505579 instructions: 50000001 cycles: 98896419
L1D TOTAL     ACCESS:   18296115  HIT:   16072646  MISS:    2223469
L1D LOAD      ACCESS:    6976017  HIT:    6224969  MISS:     751048
L1D RFO       ACCESS:    5508169  HIT:    4606285  MISS:     901884
L1D PREFETCH  ACCESS:    5811929  HIT:    5241392  MISS:     570537
L1D WRITEBACK ACCESS:          0  HIT:          0  MISS:          0
L1D PREFETCH  REQUESTED:    7012996  ISSUED:    6828227  USEFUL:     201337  USELESS:     369109
L1D AVERAGE MISS LATENCY: 189.641 cycles
L1I TOTAL     ACCESS:   17787504  HIT:   14560872  MISS:    3226632
L1I LOAD      ACCESS:    9876644  HIT:    9844716  MISS:      31928
L1I RFO       ACCESS:          0  HIT:          0  MISS:          0
L1I PREFETCH  ACCESS:    7910860  HIT:    4716156  MISS:    3194704
L1I WRITEBACK ACCESS:          0  HIT:          0  MISS:          0
L1I PREFETCH  REQUESTED:    8577325  ISSUED:    8517460  USEFUL:    2461371  USELESS:     733275
L1I AVERAGE MISS LATENCY: 18.8892 cycles
L2C TOTAL     ACCESS:    8043291  HIT:    6147237  MISS:    1896054
L2C LOAD      ACCESS:     576220  HIT:     241433  MISS:     334787
L2C RFO       ACCESS:     901427  HIT:      17796  MISS:     883631
L2C PREFETCH  ACCESS:    5391058  HIT:    4716089  MISS:     674969
L2C WRITEBACK ACCESS:    1174586  HIT:    1171919  MISS:       2667
L2C PREFETCH  REQUESTED:    5018474  ISSUED:    5012978  USEFUL:      21694  USELESS:     651770
L2C AVERAGE MISS LATENCY: 226.535 cycles
LLC TOTAL     ACCESS:    4405065  HIT:    2772852  MISS:    1632213
LLC LOAD      ACCESS:     334659  HIT:     166498  MISS:     168161
LLC RFO       ACCESS:     883628  HIT:     114672  MISS:     768956
LLC PREFETCH  ACCESS:    2073915  HIT:    1381113  MISS:     692802
LLC WRITEBACK ACCESS:    1112863  HIT:    1110569  MISS:       2294
LLC PREFETCH  REQUESTED:          0  ISSUED:          0  USEFUL:      55240  USELESS:     636758
LLC AVERAGE MISS LATENCY: 281.817 cycles
Major fault: 0 Minor fault: 25694
CPU 0 L1D next line prefetcher final stats

DRAM Statistics
 CHANNEL 0
 RQ ROW_BUFFER_HIT:     399042  ROW_BUFFER_MISS:    1230593
 DBUS_CONGESTED:    1603461
 WQ ROW_BUFFER_HIT:     256380  ROW_BUFFER_MISS:     684744  FULL:          0

 AVG_CONGESTED_CYCLE: 6

CPU 0 Branch Prediction Accuracy: 99.2186% MPKI: 1.32192 Average ROB Occupancy at Mispredict: 179.506

Branch types
NOT_BRANCH: 41540785 83.0816%
BRANCH_DIRECT_JUMP: 462384 0.924768%
BRANCH_INDIRECT: 45460 0.09092%
BRANCH_CONDITIONAL: 6209281 12.4186%
BRANCH_DIRECT_CALL: 666241 1.33248%
BRANCH_INDIRECT_CALL: 204728 0.409456%
BRANCH_RETURN: 870978 1.74196%
BRANCH_OTHER: 0 0%

