Initialize SIGNATURE TABLE
ST_SET: 1
ST_WAY: 256
ST_TAG_BIT: 16
ST_TAG_MASK: ffff

Initialize PATTERN TABLE
PT_SET: 512
PT_WAY: 4
SIG_DELTA_BIT: 7
C_SIG_BIT: 4
C_DELTA_BIT: 4

Initialize PREFETCH FILTER
FILTER_SET: 1024

*** ChampSim Multicore Out-of-Order Simulator ***

Warmup Instructions: 50000000
Simulation Instructions: 50000000
Number of CPUs: 1
LLC sets: 2048
LLC ways: 16
Off-chip DRAM Size: 4096 MB Channels: 1 Width: 64-bit Data Rate: 3200 MT/s

CPU 0 runs /home/ykhodke/ChampSim/dpc3_traces/spec_gcc_003.champsimtrace.xz
CPU 0 L1D next line prefetcher
Heartbeat CPU 0 instructions: 10000001 cycles: 3483341 heartbeat IPC: 2.87081 cumulative IPC: 2.87081 (Simulation time: 0 hr 0 min 11 sec) 
Heartbeat CPU 0 instructions: 20000000 cycles: 6964354 heartbeat IPC: 2.87273 cumulative IPC: 2.87177 (Simulation time: 0 hr 0 min 22 sec) 
Heartbeat CPU 0 instructions: 30000002 cycles: 10409473 heartbeat IPC: 2.90266 cumulative IPC: 2.88199 (Simulation time: 0 hr 0 min 33 sec) 
Heartbeat CPU 0 instructions: 40000000 cycles: 13877546 heartbeat IPC: 2.88345 cumulative IPC: 2.88235 (Simulation time: 0 hr 0 min 44 sec) 
Heartbeat CPU 0 instructions: 50000001 cycles: 17189599 heartbeat IPC: 3.01928 cumulative IPC: 2.90874 (Simulation time: 0 hr 0 min 55 sec) 

Warmup complete CPU 0 instructions: 50000001 cycles: 17189599 (Simulation time: 0 hr 0 min 55 sec) 

Heartbeat CPU 0 instructions: 60000000 cycles: 59614191 heartbeat IPC: 0.235712 cumulative IPC: 0.235712 (Simulation time: 0 hr 1 min 25 sec) 
Heartbeat CPU 0 instructions: 70000000 cycles: 105193708 heartbeat IPC: 0.219397 cumulative IPC: 0.227262 (Simulation time: 0 hr 1 min 56 sec) 
Heartbeat CPU 0 instructions: 80000002 cycles: 151480389 heartbeat IPC: 0.216045 cumulative IPC: 0.223396 (Simulation time: 0 hr 2 min 27 sec) 
Heartbeat CPU 0 instructions: 90000002 cycles: 190577144 heartbeat IPC: 0.255776 cumulative IPC: 0.230697 (Simulation time: 0 hr 2 min 55 sec) 
Heartbeat CPU 0 instructions: 100000001 cycles: 239223969 heartbeat IPC: 0.205563 cumulative IPC: 0.22519 (Simulation time: 0 hr 3 min 28 sec) 
Finished CPU 0 instructions: 50000000 cycles: 222034370 cumulative IPC: 0.22519 (Simulation time: 0 hr 3 min 28 sec) 

ChampSim completed all CPUs

Region of Interest Statistics

CPU 0 cumulative IPC: 0.22519 instructions: 50000000 cycles: 222034370
L1D TOTAL     ACCESS:   17533734  HIT:   11808863  MISS:    5724871
L1D LOAD      ACCESS:    4881380  HIT:    4500382  MISS:     380998
L1D RFO       ACCESS:    8253351  HIT:    3201155  MISS:    5052196
L1D PREFETCH  ACCESS:    4399003  HIT:    4107326  MISS:     291677
L1D WRITEBACK ACCESS:          0  HIT:          0  MISS:          0
L1D PREFETCH  REQUESTED:    4900413  ISSUED:    4842916  USEFUL:     153906  USELESS:     137951
L1D AVERAGE MISS LATENCY: 496.364 cycles
L1I TOTAL     ACCESS:   11284920  HIT:   10607543  MISS:     677377
L1I LOAD      ACCESS:   11284920  HIT:   10607543  MISS:     677377
L1I RFO       ACCESS:          0  HIT:          0  MISS:          0
L1I PREFETCH  ACCESS:          0  HIT:          0  MISS:          0
L1I WRITEBACK ACCESS:          0  HIT:          0  MISS:          0
L1I PREFETCH  REQUESTED:          0  ISSUED:          0  USEFUL:          0  USELESS:          0
L1I AVERAGE MISS LATENCY: 66.5991 cycles
L2C TOTAL     ACCESS:   11915992  HIT:    5936288  MISS:    5979704
L2C LOAD      ACCESS:     882280  HIT:     379550  MISS:     502730
L2C RFO       ACCESS:    5050498  HIT:       6635  MISS:    5043863
L2C PREFETCH  ACCESS:     825233  HIT:     392210  MISS:     433023
L2C WRITEBACK ACCESS:    5157981  HIT:    5157893  MISS:         88
L2C PREFETCH  REQUESTED:    1713540  ISSUED:    1713515  USEFUL:      14500  USELESS:     414969
L2C AVERAGE MISS LATENCY: 468.476 cycles
LLC TOTAL     ACCESS:   11884599  HIT:    7124375  MISS:    4760224
LLC LOAD      ACCESS:     502616  HIT:     346999  MISS:     155617
LLC RFO       ACCESS:    5043864  HIT:     639245  MISS:    4404619
LLC PREFETCH  ACCESS:    1204073  HIT:    1004085  MISS:     199988
LLC WRITEBACK ACCESS:    5134046  HIT:    5134046  MISS:          0
LLC PREFETCH  REQUESTED:          0  ISSUED:          0  USEFUL:      64995  USELESS:     135185
LLC AVERAGE MISS LATENCY: 558.933 cycles
Major fault: 0 Minor fault: 2817
CPU 0 L1D next line prefetcher final stats

DRAM Statistics
 CHANNEL 0
 RQ ROW_BUFFER_HIT:    1443049  ROW_BUFFER_MISS:    3317134
 DBUS_CONGESTED:    8145983
 WQ ROW_BUFFER_HIT:    1221485  ROW_BUFFER_MISS:    3211823  FULL:          0

 AVG_CONGESTED_CYCLE: 6

CPU 0 Branch Prediction Accuracy: 99.665% MPKI: 0.78342 Average ROB Occupancy at Mispredict: 74.441

Branch types
NOT_BRANCH: 38305858 76.6117%
BRANCH_DIRECT_JUMP: 384281 0.768562%
BRANCH_INDIRECT: 71949 0.143898%
BRANCH_CONDITIONAL: 9879825 19.7597%
BRANCH_DIRECT_CALL: 650586 1.30117%
BRANCH_INDIRECT_CALL: 28456 0.056912%
BRANCH_RETURN: 679046 1.35809%
BRANCH_OTHER: 0 0%

