Initialize SIGNATURE TABLE
ST_SET: 1
ST_WAY: 256
ST_TAG_BIT: 16
ST_TAG_MASK: ffff

Initialize PATTERN TABLE
PT_SET: 512
PT_WAY: 4
SIG_DELTA_BIT: 7
C_SIG_BIT: 4
C_DELTA_BIT: 4

Initialize PREFETCH FILTER
FILTER_SET: 1024

*** ChampSim Multicore Out-of-Order Simulator ***

Warmup Instructions: 50000000
Simulation Instructions: 50000000
Number of CPUs: 1
LLC sets: 2048
LLC ways: 16
Off-chip DRAM Size: 4096 MB Channels: 1 Width: 64-bit Data Rate: 3200 MT/s

CPU 0 runs /home/ykhodke/ChampSim/dpc3_traces/spec_perlbench_001.champsimtrace.xz
CPU 0 L1D next line prefetcher
Heartbeat CPU 0 instructions: 10000000 cycles: 3276011 heartbeat IPC: 3.05249 cumulative IPC: 3.05249 (Simulation time: 0 hr 0 min 13 sec) 
Heartbeat CPU 0 instructions: 20000000 cycles: 6540918 heartbeat IPC: 3.06287 cumulative IPC: 3.05767 (Simulation time: 0 hr 0 min 26 sec) 
Heartbeat CPU 0 instructions: 30000002 cycles: 9858114 heartbeat IPC: 3.01459 cumulative IPC: 3.04318 (Simulation time: 0 hr 0 min 39 sec) 
Heartbeat CPU 0 instructions: 40000002 cycles: 13113868 heartbeat IPC: 3.07149 cumulative IPC: 3.05021 (Simulation time: 0 hr 0 min 52 sec) 
Heartbeat CPU 0 instructions: 50000001 cycles: 16387599 heartbeat IPC: 3.05462 cumulative IPC: 3.05109 (Simulation time: 0 hr 1 min 4 sec) 

Warmup complete CPU 0 instructions: 50000001 cycles: 16387599 (Simulation time: 0 hr 1 min 4 sec) 

Heartbeat CPU 0 instructions: 60000001 cycles: 25124467 heartbeat IPC: 1.14457 cumulative IPC: 1.14457 (Simulation time: 0 hr 1 min 17 sec) 
Heartbeat CPU 0 instructions: 70000000 cycles: 33966837 heartbeat IPC: 1.13092 cumulative IPC: 1.13771 (Simulation time: 0 hr 1 min 30 sec) 
Heartbeat CPU 0 instructions: 80000000 cycles: 42636444 heartbeat IPC: 1.15345 cumulative IPC: 1.14291 (Simulation time: 0 hr 1 min 42 sec) 
Heartbeat CPU 0 instructions: 90000000 cycles: 48345824 heartbeat IPC: 1.7515 cumulative IPC: 1.25163 (Simulation time: 0 hr 1 min 53 sec) 
Heartbeat CPU 0 instructions: 100000002 cycles: 54229543 heartbeat IPC: 1.69961 cumulative IPC: 1.32129 (Simulation time: 0 hr 2 min 3 sec) 
Finished CPU 0 instructions: 50000001 cycles: 37841944 cumulative IPC: 1.32129 (Simulation time: 0 hr 2 min 3 sec) 

ChampSim completed all CPUs

Region of Interest Statistics

CPU 0 cumulative IPC: 1.32129 instructions: 50000001 cycles: 37841944
L1D TOTAL     ACCESS:   20895641  HIT:   20480489  MISS:     415152
L1D LOAD      ACCESS:    7274432  HIT:    7061200  MISS:     213232
L1D RFO       ACCESS:    6546398  HIT:    6527865  MISS:      18533
L1D PREFETCH  ACCESS:    7074811  HIT:    6891424  MISS:     183387
L1D WRITEBACK ACCESS:          0  HIT:          0  MISS:          0
L1D PREFETCH  REQUESTED:    7291194  ISSUED:    7175152  USEFUL:      55689  USELESS:     127693
L1D AVERAGE MISS LATENCY: 57.4721 cycles
L1I TOTAL     ACCESS:    9144065  HIT:    8836516  MISS:     307549
L1I LOAD      ACCESS:    9144065  HIT:    8836516  MISS:     307549
L1I RFO       ACCESS:          0  HIT:          0  MISS:          0
L1I PREFETCH  ACCESS:          0  HIT:          0  MISS:          0
L1I WRITEBACK ACCESS:          0  HIT:          0  MISS:          0
L1I PREFETCH  REQUESTED:          0  ISSUED:          0  USEFUL:          0  USELESS:          0
L1I AVERAGE MISS LATENCY: 18.89 cycles
L2C TOTAL     ACCESS:    1121184  HIT:     957407  MISS:     163777
L2C LOAD      ACCESS:     514643  HIT:     420880  MISS:      93763
L2C RFO       ACCESS:      18316  HIT:      13042  MISS:       5274
L2C PREFETCH  ACCESS:     509265  HIT:     444839  MISS:      64426
L2C WRITEBACK ACCESS:      78960  HIT:      78646  MISS:        314
L2C PREFETCH  REQUESTED:     637314  ISSUED:     637314  USEFUL:       3854  USELESS:      60788
L2C AVERAGE MISS LATENCY: 117.988 cycles
LLC TOTAL     ACCESS:     360782  HIT:     218989  MISS:     141793
LLC LOAD      ACCESS:      93752  HIT:      42606  MISS:      51146
LLC RFO       ACCESS:       5274  HIT:       2219  MISS:       3055
LLC PREFETCH  ACCESS:     237009  HIT:     149925  MISS:      87084
LLC WRITEBACK ACCESS:      24747  HIT:      24239  MISS:        508
LLC PREFETCH  REQUESTED:          0  ISSUED:          0  USEFUL:      15860  USELESS:      71280
LLC AVERAGE MISS LATENCY: 157.803 cycles
Major fault: 0 Minor fault: 6364
CPU 0 L1D next line prefetcher final stats

DRAM Statistics
 CHANNEL 0
 RQ ROW_BUFFER_HIT:      32297  ROW_BUFFER_MISS:     108988
 DBUS_CONGESTED:      56865
 WQ ROW_BUFFER_HIT:       4347  ROW_BUFFER_MISS:      12956  FULL:          0

 AVG_CONGESTED_CYCLE: 4

CPU 0 Branch Prediction Accuracy: 98.7418% MPKI: 2.47758 Average ROB Occupancy at Mispredict: 69.6073

Branch types
NOT_BRANCH: 40154100 80.3082%
BRANCH_DIRECT_JUMP: 817094 1.63419%
BRANCH_INDIRECT: 303787 0.607574%
BRANCH_CONDITIONAL: 7492103 14.9842%
BRANCH_DIRECT_CALL: 471777 0.943554%
BRANCH_INDIRECT_CALL: 144546 0.289092%
BRANCH_RETURN: 616324 1.23265%
BRANCH_OTHER: 0 0%

