Initialize SIGNATURE TABLE
ST_SET: 1
ST_WAY: 256
ST_TAG_BIT: 16
ST_TAG_MASK: ffff

Initialize PATTERN TABLE
PT_SET: 512
PT_WAY: 4
SIG_DELTA_BIT: 7
C_SIG_BIT: 4
C_DELTA_BIT: 4

Initialize PREFETCH FILTER
FILTER_SET: 1024

*** ChampSim Multicore Out-of-Order Simulator ***

Warmup Instructions: 50000000
Simulation Instructions: 50000000
Number of CPUs: 1
LLC sets: 2048
LLC ways: 16
Off-chip DRAM Size: 4096 MB Channels: 1 Width: 64-bit Data Rate: 3200 MT/s

CPU 0 runs /home/ykhodke/ChampSim/dpc3_traces/spec_gcc_003.champsimtrace.xz
L1I D-JOLT instruction prefetcher has been constructed!
CPU 0 L1D next line prefetcher
Heartbeat CPU 0 instructions: 10000001 cycles: 3486736 heartbeat IPC: 2.86801 cumulative IPC: 2.86801 (Simulation time: 0 hr 0 min 12 sec) 
Heartbeat CPU 0 instructions: 20000000 cycles: 6952970 heartbeat IPC: 2.88498 cumulative IPC: 2.87647 (Simulation time: 0 hr 0 min 24 sec) 
Heartbeat CPU 0 instructions: 30000002 cycles: 10394592 heartbeat IPC: 2.90561 cumulative IPC: 2.88612 (Simulation time: 0 hr 0 min 35 sec) 
Heartbeat CPU 0 instructions: 40000000 cycles: 13860821 heartbeat IPC: 2.88498 cumulative IPC: 2.88583 (Simulation time: 0 hr 0 min 47 sec) 
Heartbeat CPU 0 instructions: 50000001 cycles: 17168414 heartbeat IPC: 3.02335 cumulative IPC: 2.91232 (Simulation time: 0 hr 0 min 58 sec) 

Warmup complete CPU 0 instructions: 50000001 cycles: 17168414 (Simulation time: 0 hr 0 min 58 sec) 

Heartbeat CPU 0 instructions: 60000000 cycles: 56893043 heartbeat IPC: 0.251733 cumulative IPC: 0.251733 (Simulation time: 0 hr 1 min 29 sec) 
Heartbeat CPU 0 instructions: 70000000 cycles: 99614984 heartbeat IPC: 0.234072 cumulative IPC: 0.242581 (Simulation time: 0 hr 2 min 1 sec) 
Heartbeat CPU 0 instructions: 80000003 cycles: 143318842 heartbeat IPC: 0.228813 cumulative IPC: 0.237811 (Simulation time: 0 hr 2 min 34 sec) 
Heartbeat CPU 0 instructions: 90000002 cycles: 180305963 heartbeat IPC: 0.270364 cumulative IPC: 0.245192 (Simulation time: 0 hr 3 min 3 sec) 
Heartbeat CPU 0 instructions: 100000001 cycles: 226821538 heartbeat IPC: 0.214982 cumulative IPC: 0.238489 (Simulation time: 0 hr 3 min 37 sec) 
Finished CPU 0 instructions: 50000000 cycles: 209653124 cumulative IPC: 0.238489 (Simulation time: 0 hr 3 min 37 sec) 

ChampSim completed all CPUs

Region of Interest Statistics

CPU 0 cumulative IPC: 0.238489 instructions: 50000000 cycles: 209653124
L1D TOTAL     ACCESS:   16801999  HIT:   11077727  MISS:    5724272
L1D LOAD      ACCESS:    4544964  HIT:    4161878  MISS:     383086
L1D RFO       ACCESS:    8201821  HIT:    3150160  MISS:    5051661
L1D PREFETCH  ACCESS:    4055214  HIT:    3765689  MISS:     289525
L1D WRITEBACK ACCESS:          0  HIT:          0  MISS:          0
L1D PREFETCH  REQUESTED:    4562446  ISSUED:    4502883  USEFUL:     152170  USELESS:     137535
L1D AVERAGE MISS LATENCY: 500.598 cycles
L1I TOTAL     ACCESS:   15794497  HIT:   14421573  MISS:    1372924
L1I LOAD      ACCESS:   11287368  HIT:   11224356  MISS:      63012
L1I RFO       ACCESS:          0  HIT:          0  MISS:          0
L1I PREFETCH  ACCESS:    4507129  HIT:    3197217  MISS:    1309912
L1I WRITEBACK ACCESS:          0  HIT:          0  MISS:          0
L1I PREFETCH  REQUESTED:    5097320  ISSUED:    4854498  USEFUL:     804329  USELESS:     505590
L1I AVERAGE MISS LATENCY: 61.6306 cycles
L2C TOTAL     ACCESS:   12665381  HIT:    6563868  MISS:    6101513
L2C LOAD      ACCESS:     235855  HIT:      64191  MISS:     171664
L2C RFO       ACCESS:    5049819  HIT:       6441  MISS:    5043378
L2C PREFETCH  ACCESS:    2221833  HIT:    1336058  MISS:     885775
L2C WRITEBACK ACCESS:    5157874  HIT:    5157178  MISS:        696
L2C PREFETCH  REQUESTED:    2001708  ISSUED:    2001679  USEFUL:      24898  USELESS:     858011
L2C AVERAGE MISS LATENCY: 470.064 cycles
LLC TOTAL     ACCESS:   12009077  HIT:    7254593  MISS:    4754484
LLC LOAD      ACCESS:     171619  HIT:     128720  MISS:      42899
LLC RFO       ACCESS:    5043378  HIT:     638060  MISS:    4405318
LLC PREFETCH  ACCESS:    1660336  HIT:    1354069  MISS:     306267
LLC WRITEBACK ACCESS:    5133744  HIT:    5133744  MISS:          0
LLC PREFETCH  REQUESTED:          0  ISSUED:          0  USEFUL:      11806  USELESS:     294342
LLC AVERAGE MISS LATENCY: 574.938 cycles
Major fault: 0 Minor fault: 2819
CPU 0 L1D next line prefetcher final stats

DRAM Statistics
 CHANNEL 0
 RQ ROW_BUFFER_HIT:    1444593  ROW_BUFFER_MISS:    3309558
 DBUS_CONGESTED:    8201795
 WQ ROW_BUFFER_HIT:    1175344  ROW_BUFFER_MISS:    3259648  FULL:          0

 AVG_CONGESTED_CYCLE: 6

CPU 0 Branch Prediction Accuracy: 99.665% MPKI: 0.78342 Average ROB Occupancy at Mispredict: 124.346

Branch types
NOT_BRANCH: 38305861 76.6117%
BRANCH_DIRECT_JUMP: 384281 0.768562%
BRANCH_INDIRECT: 71949 0.143898%
BRANCH_CONDITIONAL: 9879826 19.7597%
BRANCH_DIRECT_CALL: 650586 1.30117%
BRANCH_INDIRECT_CALL: 28456 0.056912%
BRANCH_RETURN: 679046 1.35809%
BRANCH_OTHER: 0 0%

