Initialize SIGNATURE TABLE
ST_SET: 1
ST_WAY: 256
ST_TAG_BIT: 16
ST_TAG_MASK: ffff

Initialize PATTERN TABLE
PT_SET: 512
PT_WAY: 4
SIG_DELTA_BIT: 7
C_SIG_BIT: 4
C_DELTA_BIT: 4

Initialize PREFETCH FILTER
FILTER_SET: 1024

*** ChampSim Multicore Out-of-Order Simulator ***

Warmup Instructions: 50000000
Simulation Instructions: 50000000
Number of CPUs: 1
LLC sets: 2048
LLC ways: 16
Off-chip DRAM Size: 4096 MB Channels: 1 Width: 64-bit Data Rate: 3200 MT/s

CPU 0 runs /home/ykhodke/ChampSim/dpc3_traces/spec_gcc_002.champsimtrace.xz
CPU 0 L1D next line prefetcher
Heartbeat CPU 0 instructions: 10000002 cycles: 3611966 heartbeat IPC: 2.76858 cumulative IPC: 2.76858 (Simulation time: 0 hr 0 min 12 sec) 
Heartbeat CPU 0 instructions: 20000000 cycles: 7189424 heartbeat IPC: 2.79528 cumulative IPC: 2.78186 (Simulation time: 0 hr 0 min 24 sec) 
Heartbeat CPU 0 instructions: 30000000 cycles: 10881969 heartbeat IPC: 2.70816 cumulative IPC: 2.75685 (Simulation time: 0 hr 0 min 37 sec) 
Heartbeat CPU 0 instructions: 40000000 cycles: 14463785 heartbeat IPC: 2.79188 cumulative IPC: 2.76553 (Simulation time: 0 hr 0 min 48 sec) 
Heartbeat CPU 0 instructions: 50000002 cycles: 17972233 heartbeat IPC: 2.85026 cumulative IPC: 2.78207 (Simulation time: 0 hr 1 min 0 sec) 

Warmup complete CPU 0 instructions: 50000002 cycles: 17972233 (Simulation time: 0 hr 1 min 0 sec) 

Heartbeat CPU 0 instructions: 60000001 cycles: 59395736 heartbeat IPC: 0.241409 cumulative IPC: 0.241409 (Simulation time: 0 hr 1 min 28 sec) 
Heartbeat CPU 0 instructions: 70000001 cycles: 92663855 heartbeat IPC: 0.300588 cumulative IPC: 0.267768 (Simulation time: 0 hr 1 min 53 sec) 
Heartbeat CPU 0 instructions: 80000002 cycles: 143258195 heartbeat IPC: 0.197651 cumulative IPC: 0.239452 (Simulation time: 0 hr 2 min 26 sec) 
Heartbeat CPU 0 instructions: 90000001 cycles: 189543851 heartbeat IPC: 0.21605 cumulative IPC: 0.233139 (Simulation time: 0 hr 2 min 57 sec) 
Heartbeat CPU 0 instructions: 100000000 cycles: 222778621 heartbeat IPC: 0.30089 cumulative IPC: 0.244133 (Simulation time: 0 hr 3 min 22 sec) 
Finished CPU 0 instructions: 50000002 cycles: 204806396 cumulative IPC: 0.244133 (Simulation time: 0 hr 3 min 22 sec) 

ChampSim completed all CPUs

Region of Interest Statistics

CPU 0 cumulative IPC: 0.244133 instructions: 50000002 cycles: 204806396
L1D TOTAL     ACCESS:   18713921  HIT:   13479758  MISS:    5234163
L1D LOAD      ACCESS:    6582151  HIT:    5525415  MISS:    1056736
L1D RFO       ACCESS:    7056653  HIT:    3455599  MISS:    3601054
L1D PREFETCH  ACCESS:    5075117  HIT:    4498744  MISS:     576373
L1D WRITEBACK ACCESS:          0  HIT:          0  MISS:          0
L1D PREFETCH  REQUESTED:    6603082  ISSUED:    6536465  USEFUL:     416243  USELESS:     160346
L1D AVERAGE MISS LATENCY: 331.555 cycles
L1I TOTAL     ACCESS:   12097785  HIT:   11554265  MISS:     543520
L1I LOAD      ACCESS:   12097785  HIT:   11554265  MISS:     543520
L1I RFO       ACCESS:          0  HIT:          0  MISS:          0
L1I PREFETCH  ACCESS:          0  HIT:          0  MISS:          0
L1I WRITEBACK ACCESS:          0  HIT:          0  MISS:          0
L1I PREFETCH  REQUESTED:          0  ISSUED:          0  USEFUL:          0  USELESS:          0
L1I AVERAGE MISS LATENCY: 66.2453 cycles
L2C TOTAL     ACCESS:    9924052  HIT:    4663174  MISS:    5260878
L2C LOAD      ACCESS:     797913  HIT:     407538  MISS:     390375
L2C RFO       ACCESS:    3599587  HIT:      12688  MISS:    3586899
L2C PREFETCH  ACCESS:    1800989  HIT:     517512  MISS:    1283477
L2C WRITEBACK ACCESS:    3725563  HIT:    3725436  MISS:        127
L2C PREFETCH  REQUESTED:    2820350  ISSUED:    2820348  USEFUL:      17361  USELESS:    1266219
L2C AVERAGE MISS LATENCY: 339.711 cycles
LLC TOTAL     ACCESS:    9916281  HIT:    6081398  MISS:    3834883
LLC LOAD      ACCESS:     390121  HIT:     230133  MISS:     159988
LLC RFO       ACCESS:    3586900  HIT:     608361  MISS:    2978539
LLC PREFETCH  ACCESS:    2273045  HIT:    1576689  MISS:     696356
LLC WRITEBACK ACCESS:    3666215  HIT:    3666215  MISS:          0
LLC PREFETCH  REQUESTED:          0  ISSUED:          0  USEFUL:     182543  USELESS:     509135
LLC AVERAGE MISS LATENCY: 446.293 cycles
Major fault: 0 Minor fault: 4152
CPU 0 L1D next line prefetcher final stats

DRAM Statistics
 CHANNEL 0
 RQ ROW_BUFFER_HIT:    1002374  ROW_BUFFER_MISS:    2829687
 DBUS_CONGESTED:    5479695
 WQ ROW_BUFFER_HIT:     968010  ROW_BUFFER_MISS:    2188835  FULL:          0

 AVG_CONGESTED_CYCLE: 6

CPU 0 Branch Prediction Accuracy: 99.5987% MPKI: 0.82446 Average ROB Occupancy at Mispredict: 93.3348

Branch types
NOT_BRANCH: 39726808 79.4536%
BRANCH_DIRECT_JUMP: 391439 0.782878%
BRANCH_INDIRECT: 62076 0.124152%
BRANCH_CONDITIONAL: 8421542 16.8431%
BRANCH_DIRECT_CALL: 672962 1.34592%
BRANCH_INDIRECT_CALL: 26115 0.05223%
BRANCH_RETURN: 699082 1.39816%
BRANCH_OTHER: 0 0%

