Initialize SIGNATURE TABLE
ST_SET: 1
ST_WAY: 256
ST_TAG_BIT: 16
ST_TAG_MASK: ffff

Initialize PATTERN TABLE
PT_SET: 512
PT_WAY: 4
SIG_DELTA_BIT: 7
C_SIG_BIT: 4
C_DELTA_BIT: 4

Initialize PREFETCH FILTER
FILTER_SET: 1024

*** ChampSim Multicore Out-of-Order Simulator ***

Warmup Instructions: 50000000
Simulation Instructions: 50000000
Number of CPUs: 1
LLC sets: 2048
LLC ways: 16
Off-chip DRAM Size: 4096 MB Channels: 1 Width: 64-bit Data Rate: 3200 MT/s

CPU 0 runs /home/ykhodke/ChampSim/dpc3_traces/client_001.champsimtrace.xz
L1I D-JOLT instruction prefetcher has been constructed!
CPU 0 L1D next line prefetcher
Heartbeat CPU 0 instructions: 10000003 cycles: 3410928 heartbeat IPC: 2.93175 cumulative IPC: 2.93175 (Simulation time: 0 hr 2 min 57 sec) 
Heartbeat CPU 0 instructions: 20000001 cycles: 7119706 heartbeat IPC: 2.69631 cumulative IPC: 2.8091 (Simulation time: 0 hr 6 min 6 sec) 
Heartbeat CPU 0 instructions: 30000001 cycles: 10483365 heartbeat IPC: 2.97295 cumulative IPC: 2.86168 (Simulation time: 0 hr 9 min 7 sec) 
Heartbeat CPU 0 instructions: 40000003 cycles: 14353423 heartbeat IPC: 2.58394 cumulative IPC: 2.78679 (Simulation time: 0 hr 11 min 48 sec) 
Heartbeat CPU 0 instructions: 50000003 cycles: 17651444 heartbeat IPC: 3.03212 cumulative IPC: 2.83263 (Simulation time: 0 hr 14 min 17 sec) 

Warmup complete CPU 0 instructions: 50000003 cycles: 17651444 (Simulation time: 0 hr 14 min 17 sec) 

Heartbeat CPU 0 instructions: 60000000 cycles: 26691836 heartbeat IPC: 1.10615 cumulative IPC: 1.10615 (Simulation time: 0 hr 16 min 49 sec) 
Heartbeat CPU 0 instructions: 70000000 cycles: 33082926 heartbeat IPC: 1.56468 cumulative IPC: 1.29605 (Simulation time: 0 hr 19 min 10 sec) 
Heartbeat CPU 0 instructions: 80000002 cycles: 42418929 heartbeat IPC: 1.07112 cumulative IPC: 1.21127 (Simulation time: 0 hr 21 min 57 sec) 
Heartbeat CPU 0 instructions: 90000000 cycles: 48676178 heartbeat IPC: 1.59815 cumulative IPC: 1.28929 (Simulation time: 0 hr 24 min 8 sec) 
Heartbeat CPU 0 instructions: 100000002 cycles: 57524700 heartbeat IPC: 1.13013 cumulative IPC: 1.25397 (Simulation time: 0 hr 26 min 14 sec) 
Finished CPU 0 instructions: 50000003 cycles: 39873257 cumulative IPC: 1.25397 (Simulation time: 0 hr 26 min 14 sec) 

ChampSim completed all CPUs

Region of Interest Statistics

CPU 0 cumulative IPC: 1.25397 instructions: 50000003 cycles: 39873257
L1D TOTAL     ACCESS:   21222801  HIT:   20386352  MISS:     836449
L1D LOAD      ACCESS:    8813750  HIT:    8418788  MISS:     394962
L1D RFO       ACCESS:    4039963  HIT:    3980826  MISS:      59137
L1D PREFETCH  ACCESS:    8369088  HIT:    7986738  MISS:     382350
L1D WRITEBACK ACCESS:          0  HIT:          0  MISS:          0
L1D PREFETCH  REQUESTED:    8858812  ISSUED:    8549645  USEFUL:     129414  USELESS:     252910
L1D AVERAGE MISS LATENCY: 48.1999 cycles
L1I TOTAL     ACCESS:   13465783  HIT:   12646949  MISS:     818834
L1I LOAD      ACCESS:    8949841  HIT:    8937688  MISS:      12153
L1I RFO       ACCESS:          0  HIT:          0  MISS:          0
L1I PREFETCH  ACCESS:    4515942  HIT:    3709261  MISS:     806681
L1I WRITEBACK ACCESS:          0  HIT:          0  MISS:          0
L1I PREFETCH  REQUESTED:    4730536  ISSUED:    4616553  USEFUL:     435838  USELESS:     370700
L1I AVERAGE MISS LATENCY: 18.3354 cycles
L2C TOTAL     ACCESS:    2584350  HIT:    2279323  MISS:     305027
L2C LOAD      ACCESS:     386222  HIT:     272473  MISS:     113749
L2C RFO       ACCESS:      58368  HIT:      21468  MISS:      36900
L2C PREFETCH  ACCESS:    1950155  HIT:    1796011  MISS:     154144
L2C WRITEBACK ACCESS:     189605  HIT:     189371  MISS:        234
L2C PREFETCH  REQUESTED:    2030847  ISSUED:    2023087  USEFUL:      13536  USELESS:     139389
L2C AVERAGE MISS LATENCY: 106.507 cycles
LLC TOTAL     ACCESS:     846741  HIT:     648110  MISS:     198631
LLC LOAD      ACCESS:     113402  HIT:      70717  MISS:      42685
LLC RFO       ACCESS:      36900  HIT:       8603  MISS:      28297
LLC PREFETCH  ACCESS:     590030  HIT:     463140  MISS:     126890
LLC WRITEBACK ACCESS:     106409  HIT:     105650  MISS:        759
LLC PREFETCH  REQUESTED:          0  ISSUED:          0  USEFUL:      28221  USELESS:     100755
LLC AVERAGE MISS LATENCY: 188.959 cycles
Major fault: 0 Minor fault: 3439
CPU 0 L1D next line prefetcher final stats

DRAM Statistics
 CHANNEL 0
 RQ ROW_BUFFER_HIT:      47519  ROW_BUFFER_MISS:     150336
 DBUS_CONGESTED:     115877
 WQ ROW_BUFFER_HIT:      15757  ROW_BUFFER_MISS:      64817  FULL:          0

 AVG_CONGESTED_CYCLE: 5

CPU 0 Branch Prediction Accuracy: 97.9037% MPKI: 3.63418 Average ROB Occupancy at Mispredict: 87.2108

Branch types
NOT_BRANCH: 41331383 82.6628%
BRANCH_DIRECT_JUMP: 455615 0.91123%
BRANCH_INDIRECT: 20390 0.04078%
BRANCH_CONDITIONAL: 6745374 13.4907%
BRANCH_DIRECT_CALL: 494532 0.989064%
BRANCH_INDIRECT_CALL: 228815 0.45763%
BRANCH_RETURN: 723560 1.44712%
BRANCH_OTHER: 0 0%

