Initialize SIGNATURE TABLE
ST_SET: 1
ST_WAY: 256
ST_TAG_BIT: 16
ST_TAG_MASK: ffff

Initialize PATTERN TABLE
PT_SET: 512
PT_WAY: 4
SIG_DELTA_BIT: 7
C_SIG_BIT: 4
C_DELTA_BIT: 4

Initialize PREFETCH FILTER
FILTER_SET: 1024

*** ChampSim Multicore Out-of-Order Simulator ***

Warmup Instructions: 50000000
Simulation Instructions: 50000000
Number of CPUs: 1
LLC sets: 2048
LLC ways: 16
Off-chip DRAM Size: 4096 MB Channels: 1 Width: 64-bit Data Rate: 3200 MT/s

CPU 0 runs /home/ykhodke/ChampSim/dpc3_traces/client_004.champsimtrace.xz
LHT KB: 63.12
SCC KB: 1.56
Total KB: 64.69
CPU 0 L1D next line prefetcher
Heartbeat CPU 0 instructions: 10000000 cycles: 3593116 heartbeat IPC: 2.7831 cumulative IPC: 2.7831 (Simulation time: 0 hr 2 min 39 sec) 
Heartbeat CPU 0 instructions: 20000003 cycles: 7057843 heartbeat IPC: 2.88623 cumulative IPC: 2.83373 (Simulation time: 0 hr 5 min 11 sec) 
Heartbeat CPU 0 instructions: 30000000 cycles: 10649583 heartbeat IPC: 2.78417 cumulative IPC: 2.81701 (Simulation time: 0 hr 7 min 50 sec) 
Heartbeat CPU 0 instructions: 40000003 cycles: 14330577 heartbeat IPC: 2.71666 cumulative IPC: 2.79123 (Simulation time: 0 hr 10 min 41 sec) 
Heartbeat CPU 0 instructions: 50000001 cycles: 17849061 heartbeat IPC: 2.84213 cumulative IPC: 2.80127 (Simulation time: 0 hr 13 min 41 sec) 

Warmup complete CPU 0 instructions: 50000001 cycles: 17849061 (Simulation time: 0 hr 13 min 41 sec) 

Heartbeat CPU 0 instructions: 60000002 cycles: 25609714 heartbeat IPC: 1.28855 cumulative IPC: 1.28855 (Simulation time: 0 hr 16 min 20 sec) 
Heartbeat CPU 0 instructions: 70000001 cycles: 33402242 heartbeat IPC: 1.28328 cumulative IPC: 1.28591 (Simulation time: 0 hr 19 min 12 sec) 
Heartbeat CPU 0 instructions: 80000002 cycles: 42187962 heartbeat IPC: 1.13821 cumulative IPC: 1.23259 (Simulation time: 0 hr 21 min 50 sec) 
Heartbeat CPU 0 instructions: 90000000 cycles: 50227000 heartbeat IPC: 1.24393 cumulative IPC: 1.23541 (Simulation time: 0 hr 24 min 22 sec) 
Heartbeat CPU 0 instructions: 100000001 cycles: 58156703 heartbeat IPC: 1.26108 cumulative IPC: 1.24046 (Simulation time: 0 hr 26 min 47 sec) 
Finished CPU 0 instructions: 50000000 cycles: 40307642 cumulative IPC: 1.24046 (Simulation time: 0 hr 26 min 47 sec) 

ChampSim completed all CPUs

Region of Interest Statistics

CPU 0 cumulative IPC: 1.24046 instructions: 50000000 cycles: 40307642
L1D TOTAL     ACCESS:   21930454  HIT:   21041551  MISS:     888903
L1D LOAD      ACCESS:    8710079  HIT:    8313966  MISS:     396113
L1D RFO       ACCESS:    4805515  HIT:    4683945  MISS:     121570
L1D PREFETCH  ACCESS:    8414860  HIT:    8043640  MISS:     371220
L1D WRITEBACK ACCESS:          0  HIT:          0  MISS:          0
L1D PREFETCH  REQUESTED:    8750564  ISSUED:    8590931  USEFUL:     132772  USELESS:     238456
L1D AVERAGE MISS LATENCY: 30.8855 cycles
L1I TOTAL     ACCESS:   19460021  HIT:   18128402  MISS:    1331619
L1I LOAD      ACCESS:    9393117  HIT:    9241015  MISS:     152102
L1I RFO       ACCESS:          0  HIT:          0  MISS:          0
L1I PREFETCH  ACCESS:   10066904  HIT:    8887387  MISS:    1179517
L1I WRITEBACK ACCESS:          0  HIT:          0  MISS:          0
L1I PREFETCH  REQUESTED:   12824955  ISSUED:   12824955  USEFUL:     513766  USELESS:     665719
L1I AVERAGE MISS LATENCY: 22.55 cycles
L2C TOTAL     ACCESS:    3311197  HIT:    2958929  MISS:     352268
L2C LOAD      ACCESS:     415875  HIT:     359428  MISS:      56447
L2C RFO       ACCESS:     117431  HIT:      43116  MISS:      74315
L2C PREFETCH  ACCESS:    2555881  HIT:    2335613  MISS:     220268
L2C WRITEBACK ACCESS:     222010  HIT:     220772  MISS:       1238
L2C PREFETCH  REQUESTED:    1744667  ISSUED:    1744394  USEFUL:      25132  USELESS:     193163
L2C AVERAGE MISS LATENCY: 87.3929 cycles
LLC TOTAL     ACCESS:     686888  HIT:     536281  MISS:     150607
LLC LOAD      ACCESS:      56435  HIT:      41310  MISS:      15125
LLC RFO       ACCESS:      74314  HIT:      41467  MISS:      32847
LLC PREFETCH  ACCESS:     451057  HIT:     348575  MISS:     102482
LLC WRITEBACK ACCESS:     105082  HIT:     104929  MISS:        153
LLC PREFETCH  REQUESTED:          0  ISSUED:          0  USEFUL:      14660  USELESS:      84780
LLC AVERAGE MISS LATENCY: 183.998 cycles
Major fault: 0 Minor fault: 3992
CPU 0 L1D next line prefetcher final stats

DRAM Statistics
 CHANNEL 0
 RQ ROW_BUFFER_HIT:      40113  ROW_BUFFER_MISS:     110330
 DBUS_CONGESTED:      81722
 WQ ROW_BUFFER_HIT:       8764  ROW_BUFFER_MISS:      38729  FULL:          0

 AVG_CONGESTED_CYCLE: 6

CPU 0 Branch Prediction Accuracy: 94.1242% MPKI: 11.6089 Average ROB Occupancy at Mispredict: 56.3058

Branch types
NOT_BRANCH: 40121080 80.2422%
BRANCH_DIRECT_JUMP: 644555 1.28911%
BRANCH_INDIRECT: 201946 0.403892%
BRANCH_CONDITIONAL: 7003557 14.0071%
BRANCH_DIRECT_CALL: 564821 1.12964%
BRANCH_INDIRECT_CALL: 445012 0.890024%
BRANCH_RETURN: 1018716 2.03743%
BRANCH_OTHER: 0 0%

