Initialize SIGNATURE TABLE
ST_SET: 1
ST_WAY: 256
ST_TAG_BIT: 16
ST_TAG_MASK: ffff

Initialize PATTERN TABLE
PT_SET: 512
PT_WAY: 4
SIG_DELTA_BIT: 7
C_SIG_BIT: 4
C_DELTA_BIT: 4

Initialize PREFETCH FILTER
FILTER_SET: 1024

*** ChampSim Multicore Out-of-Order Simulator ***

Warmup Instructions: 50000000
Simulation Instructions: 50000000
Number of CPUs: 1
LLC sets: 2048
LLC ways: 16
Off-chip DRAM Size: 4096 MB Channels: 1 Width: 64-bit Data Rate: 3200 MT/s

CPU 0 runs /home/ykhodke/ChampSim/dpc3_traces/client_003.champsimtrace.xz
L1I D-JOLT instruction prefetcher has been constructed!
CPU 0 L1D next line prefetcher
Heartbeat CPU 0 instructions: 10000000 cycles: 3478408 heartbeat IPC: 2.87488 cumulative IPC: 2.87488 (Simulation time: 0 hr 2 min 51 sec) 
Heartbeat CPU 0 instructions: 20000002 cycles: 6932654 heartbeat IPC: 2.89499 cumulative IPC: 2.8849 (Simulation time: 0 hr 6 min 10 sec) 
Heartbeat CPU 0 instructions: 30000003 cycles: 10493544 heartbeat IPC: 2.80829 cumulative IPC: 2.8589 (Simulation time: 0 hr 9 min 18 sec) 
Heartbeat CPU 0 instructions: 40000001 cycles: 14109944 heartbeat IPC: 2.76518 cumulative IPC: 2.83488 (Simulation time: 0 hr 12 min 48 sec) 
Heartbeat CPU 0 instructions: 50000003 cycles: 17655015 heartbeat IPC: 2.82082 cumulative IPC: 2.83206 (Simulation time: 0 hr 16 min 7 sec) 

Warmup complete CPU 0 instructions: 50000003 cycles: 17655015 (Simulation time: 0 hr 16 min 7 sec) 

Heartbeat CPU 0 instructions: 60000002 cycles: 24023093 heartbeat IPC: 1.57033 cumulative IPC: 1.57033 (Simulation time: 0 hr 19 min 14 sec) 
Heartbeat CPU 0 instructions: 70000001 cycles: 30101726 heartbeat IPC: 1.64511 cumulative IPC: 1.60685 (Simulation time: 0 hr 22 min 25 sec) 
Heartbeat CPU 0 instructions: 80000001 cycles: 37141215 heartbeat IPC: 1.42056 cumulative IPC: 1.53955 (Simulation time: 0 hr 24 min 59 sec) 
Heartbeat CPU 0 instructions: 90000000 cycles: 46113544 heartbeat IPC: 1.11454 cumulative IPC: 1.40555 (Simulation time: 0 hr 26 min 45 sec) 
Heartbeat CPU 0 instructions: 100000003 cycles: 57021223 heartbeat IPC: 0.916786 cumulative IPC: 1.27012 (Simulation time: 0 hr 28 min 25 sec) 
Finished CPU 0 instructions: 50000000 cycles: 39366208 cumulative IPC: 1.27012 (Simulation time: 0 hr 28 min 25 sec) 

ChampSim completed all CPUs

Region of Interest Statistics

CPU 0 cumulative IPC: 1.27012 instructions: 50000000 cycles: 39366208
L1D TOTAL     ACCESS:   17642726  HIT:   17146740  MISS:     495986
L1D LOAD      ACCESS:    6037866  HIT:    5913075  MISS:     124791
L1D RFO       ACCESS:    5947406  HIT:    5712941  MISS:     234465
L1D PREFETCH  ACCESS:    5657454  HIT:    5520724  MISS:     136730
L1D WRITEBACK ACCESS:          0  HIT:          0  MISS:          0
L1D PREFETCH  REQUESTED:    6079438  ISSUED:    5938221  USEFUL:      68834  USELESS:      67944
L1D AVERAGE MISS LATENCY: 122.854 cycles
L1I TOTAL     ACCESS:   14845558  HIT:   13302419  MISS:    1543139
L1I LOAD      ACCESS:    9477369  HIT:    9382012  MISS:      95357
L1I RFO       ACCESS:          0  HIT:          0  MISS:          0
L1I PREFETCH  ACCESS:    5368189  HIT:    3920407  MISS:    1447782
L1I WRITEBACK ACCESS:          0  HIT:          0  MISS:          0
L1I PREFETCH  REQUESTED:    5593892  ISSUED:    5508800  USEFUL:     674675  USELESS:     773183
L1I AVERAGE MISS LATENCY: 17.2201 cycles
L2C TOTAL     ACCESS:    2927562  HIT:    2524713  MISS:     402849
L2C LOAD      ACCESS:     172853  HIT:     120535  MISS:      52318
L2C RFO       ACCESS:     232333  HIT:      24944  MISS:     207389
L2C PREFETCH  ACCESS:    2253065  HIT:    2110985  MISS:     142080
L2C WRITEBACK ACCESS:     269311  HIT:     268249  MISS:       1062
L2C PREFETCH  REQUESTED:    1421567  ISSUED:    1421405  USEFUL:      15600  USELESS:     126389
L2C AVERAGE MISS LATENCY: 163.01 cycles
LLC TOTAL     ACCESS:     973480  HIT:     686532  MISS:     286948
LLC LOAD      ACCESS:      52278  HIT:      36315  MISS:      15963
LLC RFO       ACCESS:     207382  HIT:      34769  MISS:     172613
LLC PREFETCH  ACCESS:     488703  HIT:     390735  MISS:      97968
LLC WRITEBACK ACCESS:     225117  HIT:     224713  MISS:        404
LLC PREFETCH  REQUESTED:          0  ISSUED:          0  USEFUL:      12316  USELESS:      85265
LLC AVERAGE MISS LATENCY: 228.029 cycles
Major fault: 0 Minor fault: 5045
CPU 0 L1D next line prefetcher final stats

DRAM Statistics
 CHANNEL 0
 RQ ROW_BUFFER_HIT:      99012  ROW_BUFFER_MISS:     187524
 DBUS_CONGESTED:     255327
 WQ ROW_BUFFER_HIT:      59100  ROW_BUFFER_MISS:     119796  FULL:          0

 AVG_CONGESTED_CYCLE: 6

CPU 0 Branch Prediction Accuracy: 98.6631% MPKI: 2.66884 Average ROB Occupancy at Mispredict: 77.1128

Branch types
NOT_BRANCH: 40018778 80.0376%
BRANCH_DIRECT_JUMP: 370861 0.741722%
BRANCH_INDIRECT: 83253 0.166506%
BRANCH_CONDITIONAL: 7877436 15.7549%
BRANCH_DIRECT_CALL: 722315 1.44463%
BRANCH_INDIRECT_CALL: 101901 0.203802%
BRANCH_RETURN: 825355 1.65071%
BRANCH_OTHER: 0 0%

