Initialize SIGNATURE TABLE
ST_SET: 1
ST_WAY: 256
ST_TAG_BIT: 16
ST_TAG_MASK: ffff

Initialize PATTERN TABLE
PT_SET: 512
PT_WAY: 4
SIG_DELTA_BIT: 7
C_SIG_BIT: 4
C_DELTA_BIT: 4

Initialize PREFETCH FILTER
FILTER_SET: 1024

*** ChampSim Multicore Out-of-Order Simulator ***

Warmup Instructions: 50000000
Simulation Instructions: 50000000
Number of CPUs: 1
LLC sets: 2048
LLC ways: 16
Off-chip DRAM Size: 4096 MB Channels: 1 Width: 64-bit Data Rate: 3200 MT/s

CPU 0 runs /home/ykhodke/ChampSim/dpc3_traces/client_004.champsimtrace.xz
L1I D-JOLT instruction prefetcher has been constructed!
CPU 0 L1D next line prefetcher
Heartbeat CPU 0 instructions: 10000000 cycles: 3592596 heartbeat IPC: 2.7835 cumulative IPC: 2.7835 (Simulation time: 0 hr 2 min 29 sec) 
Heartbeat CPU 0 instructions: 20000003 cycles: 7057040 heartbeat IPC: 2.88647 cumulative IPC: 2.83405 (Simulation time: 0 hr 4 min 48 sec) 
Heartbeat CPU 0 instructions: 30000000 cycles: 10647488 heartbeat IPC: 2.78517 cumulative IPC: 2.81757 (Simulation time: 0 hr 7 min 15 sec) 
Heartbeat CPU 0 instructions: 40000003 cycles: 14328053 heartbeat IPC: 2.71697 cumulative IPC: 2.79173 (Simulation time: 0 hr 9 min 54 sec) 
Heartbeat CPU 0 instructions: 50000001 cycles: 17847733 heartbeat IPC: 2.84117 cumulative IPC: 2.80148 (Simulation time: 0 hr 12 min 59 sec) 

Warmup complete CPU 0 instructions: 50000001 cycles: 17847733 (Simulation time: 0 hr 12 min 59 sec) 

Heartbeat CPU 0 instructions: 60000002 cycles: 25733290 heartbeat IPC: 1.26814 cumulative IPC: 1.26814 (Simulation time: 0 hr 15 min 36 sec) 
Heartbeat CPU 0 instructions: 70000001 cycles: 33677526 heartbeat IPC: 1.25877 cumulative IPC: 1.26344 (Simulation time: 0 hr 18 min 37 sec) 
Heartbeat CPU 0 instructions: 80000002 cycles: 42510475 heartbeat IPC: 1.13212 cumulative IPC: 1.21641 (Simulation time: 0 hr 21 min 5 sec) 
Heartbeat CPU 0 instructions: 90000000 cycles: 50726519 heartbeat IPC: 1.21713 cumulative IPC: 1.21659 (Simulation time: 0 hr 23 min 36 sec) 
Heartbeat CPU 0 instructions: 100000001 cycles: 58710466 heartbeat IPC: 1.25251 cumulative IPC: 1.22361 (Simulation time: 0 hr 26 min 2 sec) 
Finished CPU 0 instructions: 50000000 cycles: 40862733 cumulative IPC: 1.22361 (Simulation time: 0 hr 26 min 2 sec) 

ChampSim completed all CPUs

Region of Interest Statistics

CPU 0 cumulative IPC: 1.22361 instructions: 50000000 cycles: 40862733
L1D TOTAL     ACCESS:   21943203  HIT:   21054215  MISS:     888988
L1D LOAD      ACCESS:    8714200  HIT:    8318144  MISS:     396056
L1D RFO       ACCESS:    4808884  HIT:    4687446  MISS:     121438
L1D PREFETCH  ACCESS:    8420119  HIT:    8048625  MISS:     371494
L1D WRITEBACK ACCESS:          0  HIT:          0  MISS:          0
L1D PREFETCH  REQUESTED:    8754024  ISSUED:    8594543  USEFUL:     132972  USELESS:     238530
L1D AVERAGE MISS LATENCY: 30.0118 cycles
L1I TOTAL     ACCESS:   14050107  HIT:   12875484  MISS:    1174623
L1I LOAD      ACCESS:    9401088  HIT:    9277507  MISS:     123581
L1I RFO       ACCESS:          0  HIT:          0  MISS:          0
L1I PREFETCH  ACCESS:    4649019  HIT:    3597977  MISS:    1051042
L1I WRITEBACK ACCESS:          0  HIT:          0  MISS:          0
L1I PREFETCH  REQUESTED:    5115209  ISSUED:    4996930  USEFUL:     557030  USELESS:     494081
L1I AVERAGE MISS LATENCY: 22.2888 cycles
L2C TOTAL     ACCESS:    3048331  HIT:    2739074  MISS:     309257
L2C LOAD      ACCESS:     486377  HIT:     408970  MISS:      77407
L2C RFO       ACCESS:     117397  HIT:      44107  MISS:      73290
L2C PREFETCH  ACCESS:    2222535  HIT:    2064848  MISS:     157687
L2C WRITEBACK ACCESS:     222022  HIT:     221149  MISS:        873
L2C PREFETCH  REQUESTED:    1667145  ISSUED:    1666298  USEFUL:      30432  USELESS:     126746
L2C AVERAGE MISS LATENCY: 77.6924 cycles
LLC TOTAL     ACCESS:     732602  HIT:     601940  MISS:     130662
LLC LOAD      ACCESS:      77395  HIT:      52242  MISS:      25153
LLC RFO       ACCESS:      73288  HIT:      42299  MISS:      30989
LLC PREFETCH  ACCESS:     479301  HIT:     404985  MISS:      74316
LLC WRITEBACK ACCESS:     102618  HIT:     102414  MISS:        204
LLC PREFETCH  REQUESTED:          0  ISSUED:          0  USEFUL:      24553  USELESS:      51863
LLC AVERAGE MISS LATENCY: 174.067 cycles
Major fault: 0 Minor fault: 3982
CPU 0 L1D next line prefetcher final stats

DRAM Statistics
 CHANNEL 0
 RQ ROW_BUFFER_HIT:      31044  ROW_BUFFER_MISS:      99397
 DBUS_CONGESTED:      55339
 WQ ROW_BUFFER_HIT:       9934  ROW_BUFFER_MISS:      33586  FULL:          0

 AVG_CONGESTED_CYCLE: 6

CPU 0 Branch Prediction Accuracy: 94.1242% MPKI: 11.6089 Average ROB Occupancy at Mispredict: 56.4266

Branch types
NOT_BRANCH: 40121075 80.2421%
BRANCH_DIRECT_JUMP: 644555 1.28911%
BRANCH_INDIRECT: 201946 0.403892%
BRANCH_CONDITIONAL: 7003556 14.0071%
BRANCH_DIRECT_CALL: 564821 1.12964%
BRANCH_INDIRECT_CALL: 445012 0.890024%
BRANCH_RETURN: 1018716 2.03743%
BRANCH_OTHER: 0 0%

