Initialize SIGNATURE TABLE
ST_SET: 1
ST_WAY: 256
ST_TAG_BIT: 16
ST_TAG_MASK: ffff

Initialize PATTERN TABLE
PT_SET: 512
PT_WAY: 4
SIG_DELTA_BIT: 7
C_SIG_BIT: 4
C_DELTA_BIT: 4

Initialize PREFETCH FILTER
FILTER_SET: 1024

*** ChampSim Multicore Out-of-Order Simulator ***

Warmup Instructions: 50000000
Simulation Instructions: 50000000
Number of CPUs: 1
LLC sets: 2048
LLC ways: 16
Off-chip DRAM Size: 4096 MB Channels: 1 Width: 64-bit Data Rate: 3200 MT/s

CPU 0 runs /home/ykhodke/ChampSim/dpc3_traces/client_004.champsimtrace.xz
LHT KB: 126.25
SCC KB: 1.56
Total KB: 127.81
CPU 0 L1D next line prefetcher
Heartbeat CPU 0 instructions: 10000000 cycles: 3593153 heartbeat IPC: 2.78307 cumulative IPC: 2.78307 (Simulation time: 0 hr 3 min 18 sec) 
Heartbeat CPU 0 instructions: 20000003 cycles: 7057913 heartbeat IPC: 2.8862 cumulative IPC: 2.8337 (Simulation time: 0 hr 6 min 10 sec) 
Heartbeat CPU 0 instructions: 30000000 cycles: 10649690 heartbeat IPC: 2.78414 cumulative IPC: 2.81698 (Simulation time: 0 hr 9 min 24 sec) 
Heartbeat CPU 0 instructions: 40000003 cycles: 14331262 heartbeat IPC: 2.71623 cumulative IPC: 2.7911 (Simulation time: 0 hr 12 min 16 sec) 
Heartbeat CPU 0 instructions: 50000001 cycles: 17850001 heartbeat IPC: 2.84193 cumulative IPC: 2.80112 (Simulation time: 0 hr 15 min 11 sec) 

Warmup complete CPU 0 instructions: 50000001 cycles: 17850001 (Simulation time: 0 hr 15 min 11 sec) 

Heartbeat CPU 0 instructions: 60000002 cycles: 25542309 heartbeat IPC: 1.3 cumulative IPC: 1.3 (Simulation time: 0 hr 17 min 42 sec) 
Heartbeat CPU 0 instructions: 70000001 cycles: 33271744 heartbeat IPC: 1.29376 cumulative IPC: 1.29687 (Simulation time: 0 hr 20 min 26 sec) 
Heartbeat CPU 0 instructions: 80000002 cycles: 41948480 heartbeat IPC: 1.15251 cumulative IPC: 1.24489 (Simulation time: 0 hr 23 min 3 sec) 
Heartbeat CPU 0 instructions: 90000000 cycles: 49983981 heartbeat IPC: 1.24448 cumulative IPC: 1.24479 (Simulation time: 0 hr 25 min 20 sec) 
Heartbeat CPU 0 instructions: 100000002 cycles: 57835833 heartbeat IPC: 1.27359 cumulative IPC: 1.25044 (Simulation time: 0 hr 27 min 15 sec) 
Finished CPU 0 instructions: 50000001 cycles: 39985832 cumulative IPC: 1.25044 (Simulation time: 0 hr 27 min 15 sec) 

ChampSim completed all CPUs

Region of Interest Statistics

CPU 0 cumulative IPC: 1.25044 instructions: 50000001 cycles: 39985832
L1D TOTAL     ACCESS:   21924064  HIT:   21035148  MISS:     888916
L1D LOAD      ACCESS:    8707295  HIT:    8310928  MISS:     396367
L1D RFO       ACCESS:    4805391  HIT:    4683792  MISS:     121599
L1D PREFETCH  ACCESS:    8411378  HIT:    8040428  MISS:     370950
L1D WRITEBACK ACCESS:          0  HIT:          0  MISS:          0
L1D PREFETCH  REQUESTED:    8748151  ISSUED:    8588456  USEFUL:     132475  USELESS:     238483
L1D AVERAGE MISS LATENCY: 31.0017 cycles
L1I TOTAL     ACCESS:   19861817  HIT:   18292693  MISS:    1569124
L1I LOAD      ACCESS:    9400343  HIT:    9258900  MISS:     141443
L1I RFO       ACCESS:          0  HIT:          0  MISS:          0
L1I PREFETCH  ACCESS:   10461474  HIT:    9033793  MISS:    1427681
L1I WRITEBACK ACCESS:          0  HIT:          0  MISS:          0
L1I PREFETCH  REQUESTED:   13852279  ISSUED:   13852279  USEFUL:     557334  USELESS:     870325
L1I AVERAGE MISS LATENCY: 21.0022 cycles
L2C TOTAL     ACCESS:    3563517  HIT:    3220503  MISS:     343014
L2C LOAD      ACCESS:     414520  HIT:     359967  MISS:      54553
L2C RFO       ACCESS:     117418  HIT:      42652  MISS:      74766
L2C PREFETCH  ACCESS:    2809569  HIT:    2597285  MISS:     212284
L2C WRITEBACK ACCESS:     222010  HIT:     220599  MISS:       1411
L2C PREFETCH  REQUESTED:    1809672  ISSUED:    1809173  USEFUL:      24777  USELESS:     185481
L2C AVERAGE MISS LATENCY: 86.8583 cycles
LLC TOTAL     ACCESS:     744936  HIT:     600912  MISS:     144024
LLC LOAD      ACCESS:      54546  HIT:      39939  MISS:      14607
LLC RFO       ACCESS:      74766  HIT:      42351  MISS:      32415
LLC PREFETCH  ACCESS:     509683  HIT:     412870  MISS:      96813
LLC WRITEBACK ACCESS:     105941  HIT:     105752  MISS:        189
LLC PREFETCH  REQUESTED:          0  ISSUED:          0  USEFUL:      14205  USELESS:      79577
LLC AVERAGE MISS LATENCY: 185.805 cycles
Major fault: 0 Minor fault: 3990
CPU 0 L1D next line prefetcher final stats

DRAM Statistics
 CHANNEL 0
 RQ ROW_BUFFER_HIT:      38180  ROW_BUFFER_MISS:     105637
 DBUS_CONGESTED:      76339
 WQ ROW_BUFFER_HIT:       8526  ROW_BUFFER_MISS:      38093  FULL:          0

 AVG_CONGESTED_CYCLE: 6

CPU 0 Branch Prediction Accuracy: 94.1242% MPKI: 11.6089 Average ROB Occupancy at Mispredict: 56.7647

Branch types
NOT_BRANCH: 40121080 80.2422%
BRANCH_DIRECT_JUMP: 644555 1.28911%
BRANCH_INDIRECT: 201946 0.403892%
BRANCH_CONDITIONAL: 7003557 14.0071%
BRANCH_DIRECT_CALL: 564821 1.12964%
BRANCH_INDIRECT_CALL: 445012 0.890024%
BRANCH_RETURN: 1018716 2.03743%
BRANCH_OTHER: 0 0%

