Initialize SIGNATURE TABLE
ST_SET: 1
ST_WAY: 256
ST_TAG_BIT: 16
ST_TAG_MASK: ffff

Initialize PATTERN TABLE
PT_SET: 512
PT_WAY: 4
SIG_DELTA_BIT: 7
C_SIG_BIT: 4
C_DELTA_BIT: 4

Initialize PREFETCH FILTER
FILTER_SET: 1024

*** ChampSim Multicore Out-of-Order Simulator ***

Warmup Instructions: 50000000
Simulation Instructions: 50000000
Number of CPUs: 1
LLC sets: 2048
LLC ways: 16
Off-chip DRAM Size: 4096 MB Channels: 1 Width: 64-bit Data Rate: 3200 MT/s

CPU 0 runs /home/ykhodke/ChampSim/dpc3_traces/client_003.champsimtrace.xz
LHT KB: 126.25
SCC KB: 1.56
Total KB: 127.81
CPU 0 L1D next line prefetcher
Heartbeat CPU 0 instructions: 10000000 cycles: 3478497 heartbeat IPC: 2.8748 cumulative IPC: 2.8748 (Simulation time: 0 hr 2 min 57 sec) 
Heartbeat CPU 0 instructions: 20000002 cycles: 6932780 heartbeat IPC: 2.89496 cumulative IPC: 2.88485 (Simulation time: 0 hr 6 min 5 sec) 
Heartbeat CPU 0 instructions: 30000003 cycles: 10493771 heartbeat IPC: 2.80821 cumulative IPC: 2.85884 (Simulation time: 0 hr 9 min 9 sec) 
Heartbeat CPU 0 instructions: 40000001 cycles: 14110290 heartbeat IPC: 2.76509 cumulative IPC: 2.83481 (Simulation time: 0 hr 12 min 13 sec) 
Heartbeat CPU 0 instructions: 50000003 cycles: 17655283 heartbeat IPC: 2.82088 cumulative IPC: 2.83201 (Simulation time: 0 hr 15 min 11 sec) 

Warmup complete CPU 0 instructions: 50000003 cycles: 17655283 (Simulation time: 0 hr 15 min 11 sec) 

Heartbeat CPU 0 instructions: 60000002 cycles: 23878744 heartbeat IPC: 1.60682 cumulative IPC: 1.60682 (Simulation time: 0 hr 17 min 50 sec) 
Heartbeat CPU 0 instructions: 70000001 cycles: 29940782 heartbeat IPC: 1.64961 cumulative IPC: 1.62794 (Simulation time: 0 hr 20 min 27 sec) 
Heartbeat CPU 0 instructions: 80000001 cycles: 36750628 heartbeat IPC: 1.46846 cumulative IPC: 1.57106 (Simulation time: 0 hr 23 min 5 sec) 
Heartbeat CPU 0 instructions: 90000000 cycles: 45659174 heartbeat IPC: 1.12252 cumulative IPC: 1.42837 (Simulation time: 0 hr 24 min 58 sec) 
Heartbeat CPU 0 instructions: 100000003 cycles: 56498740 heartbeat IPC: 0.922546 cumulative IPC: 1.28722 (Simulation time: 0 hr 27 min 5 sec) 
Finished CPU 0 instructions: 50000000 cycles: 38843457 cumulative IPC: 1.28722 (Simulation time: 0 hr 27 min 5 sec) 

ChampSim completed all CPUs

Region of Interest Statistics

CPU 0 cumulative IPC: 1.28722 instructions: 50000000 cycles: 38843457
L1D TOTAL     ACCESS:   17654121  HIT:   17158145  MISS:     495976
L1D LOAD      ACCESS:    6046314  HIT:    5920364  MISS:     125950
L1D RFO       ACCESS:    5947200  HIT:    5712784  MISS:     234416
L1D PREFETCH  ACCESS:    5660607  HIT:    5524997  MISS:     135610
L1D WRITEBACK ACCESS:          0  HIT:          0  MISS:          0
L1D PREFETCH  REQUESTED:    6087801  ISSUED:    5946750  USEFUL:      67702  USELESS:      67956
L1D AVERAGE MISS LATENCY: 122.987 cycles
L1I TOTAL     ACCESS:   19396253  HIT:   18496880  MISS:     899373
L1I LOAD      ACCESS:    9439859  HIT:    9301132  MISS:     138727
L1I RFO       ACCESS:          0  HIT:          0  MISS:          0
L1I PREFETCH  ACCESS:    9956394  HIT:    9195748  MISS:     760646
L1I WRITEBACK ACCESS:          0  HIT:          0  MISS:          0
L1I PREFETCH  REQUESTED:   11261135  ISSUED:   11261069  USEFUL:     414489  USELESS:     346181
L1I AVERAGE MISS LATENCY: 18.742 cycles
L2C TOTAL     ACCESS:    2025355  HIT:    1616876  MISS:     408479
L2C LOAD      ACCESS:     116761  HIT:      80106  MISS:      36655
L2C RFO       ACCESS:     232351  HIT:      25671  MISS:     206680
L2C PREFETCH  ACCESS:    1406960  HIT:    1243061  MISS:     163899
L2C WRITEBACK ACCESS:     269283  HIT:     268038  MISS:       1245
L2C PREFETCH  REQUESTED:    1032806  ISSUED:    1032567  USEFUL:       9712  USELESS:     154326
L2C AVERAGE MISS LATENCY: 166.033 cycles
LLC TOTAL     ACCESS:     954866  HIT:     668904  MISS:     285962
LLC LOAD      ACCESS:      36581  HIT:      25919  MISS:      10662
LLC RFO       ACCESS:     206672  HIT:      35144  MISS:     171528
LLC PREFETCH  ACCESS:     487003  HIT:     383632  MISS:     103371
LLC WRITEBACK ACCESS:     224610  HIT:     224209  MISS:        401
LLC PREFETCH  REQUESTED:          0  ISSUED:          0  USEFUL:       8197  USELESS:      95765
LLC AVERAGE MISS LATENCY: 233.836 cycles
Major fault: 0 Minor fault: 5085
CPU 0 L1D next line prefetcher final stats

DRAM Statistics
 CHANNEL 0
 RQ ROW_BUFFER_HIT:     101270  ROW_BUFFER_MISS:     184284
 DBUS_CONGESTED:     259764
 WQ ROW_BUFFER_HIT:      58575  ROW_BUFFER_MISS:     119899  FULL:          0

 AVG_CONGESTED_CYCLE: 6

CPU 0 Branch Prediction Accuracy: 98.6631% MPKI: 2.66884 Average ROB Occupancy at Mispredict: 78.1932

Branch types
NOT_BRANCH: 40018780 80.0376%
BRANCH_DIRECT_JUMP: 370861 0.741722%
BRANCH_INDIRECT: 83253 0.166506%
BRANCH_CONDITIONAL: 7877436 15.7549%
BRANCH_DIRECT_CALL: 722316 1.44463%
BRANCH_INDIRECT_CALL: 101901 0.203802%
BRANCH_RETURN: 825355 1.65071%
BRANCH_OTHER: 0 0%

