Initialize SIGNATURE TABLE
ST_SET: 1
ST_WAY: 256
ST_TAG_BIT: 16
ST_TAG_MASK: ffff

Initialize PATTERN TABLE
PT_SET: 512
PT_WAY: 4
SIG_DELTA_BIT: 7
C_SIG_BIT: 4
C_DELTA_BIT: 4

Initialize PREFETCH FILTER
FILTER_SET: 1024

*** ChampSim Multicore Out-of-Order Simulator ***

Warmup Instructions: 50000000
Simulation Instructions: 50000000
Number of CPUs: 1
LLC sets: 2048
LLC ways: 16
Off-chip DRAM Size: 4096 MB Channels: 1 Width: 64-bit Data Rate: 3200 MT/s

CPU 0 runs /home/ykhodke/ChampSim/dpc3_traces/client_002.champsimtrace.xz
CPU 0 EPI prefetcher
CPU 0 L1D next line prefetcher
Heartbeat CPU 0 instructions: 10000000 cycles: 3405150 heartbeat IPC: 2.93673 cumulative IPC: 2.93673 (Simulation time: 0 hr 3 min 22 sec) 
Heartbeat CPU 0 instructions: 20000002 cycles: 6860979 heartbeat IPC: 2.89366 cumulative IPC: 2.91504 (Simulation time: 0 hr 6 min 51 sec) 
Heartbeat CPU 0 instructions: 30000001 cycles: 10293988 heartbeat IPC: 2.9129 cumulative IPC: 2.91432 (Simulation time: 0 hr 10 min 33 sec) 
Heartbeat CPU 0 instructions: 40000002 cycles: 13726912 heartbeat IPC: 2.91297 cumulative IPC: 2.91398 (Simulation time: 0 hr 14 min 19 sec) 
Heartbeat CPU 0 instructions: 50000002 cycles: 17167952 heartbeat IPC: 2.9061 cumulative IPC: 2.9124 (Simulation time: 0 hr 18 min 3 sec) 

Warmup complete CPU 0 instructions: 50000002 cycles: 17167952 (Simulation time: 0 hr 18 min 3 sec) 

Heartbeat CPU 0 instructions: 60000002 cycles: 23319524 heartbeat IPC: 1.6256 cumulative IPC: 1.6256 (Simulation time: 0 hr 21 min 24 sec) 
Heartbeat CPU 0 instructions: 70000001 cycles: 29554333 heartbeat IPC: 1.6039 cumulative IPC: 1.61468 (Simulation time: 0 hr 24 min 28 sec) 
Heartbeat CPU 0 instructions: 80000003 cycles: 35643574 heartbeat IPC: 1.64224 cumulative IPC: 1.62376 (Simulation time: 0 hr 27 min 32 sec) 
Heartbeat CPU 0 instructions: 90000000 cycles: 42353873 heartbeat IPC: 1.49025 cumulative IPC: 1.58819 (Simulation time: 0 hr 30 min 28 sec) 
Heartbeat CPU 0 instructions: 100000003 cycles: 48524179 heartbeat IPC: 1.62067 cumulative IPC: 1.59458 (Simulation time: 0 hr 32 min 45 sec) 
Finished CPU 0 instructions: 50000001 cycles: 31356227 cumulative IPC: 1.59458 (Simulation time: 0 hr 32 min 45 sec) 

ChampSim completed all CPUs

Region of Interest Statistics

CPU 0 cumulative IPC: 1.59458 instructions: 50000001 cycles: 31356227
L1D TOTAL     ACCESS:   19205960  HIT:   18866598  MISS:     339362
L1D LOAD      ACCESS:    6521571  HIT:    6405042  MISS:     116529
L1D RFO       ACCESS:    6424115  HIT:    6334418  MISS:      89697
L1D PREFETCH  ACCESS:    6260274  HIT:    6127138  MISS:     133136
L1D WRITEBACK ACCESS:          0  HIT:          0  MISS:          0
L1D PREFETCH  REQUESTED:    6531579  ISSUED:    6328848  USEFUL:      54214  USELESS:      79065
L1D AVERAGE MISS LATENCY: 49.0155 cycles
L1I TOTAL     ACCESS:   28292156  HIT:   27410790  MISS:     881366
L1I LOAD      ACCESS:    9526354  HIT:    9381106  MISS:     145248
L1I RFO       ACCESS:          0  HIT:          0  MISS:          0
L1I PREFETCH  ACCESS:   18765802  HIT:   18029684  MISS:     736118
L1I WRITEBACK ACCESS:          0  HIT:          0  MISS:          0
L1I PREFETCH  REQUESTED:   21511544  ISSUED:   21511544  USEFUL:     514087  USELESS:     222054
L1I AVERAGE MISS LATENCY: 17.7281 cycles
L2C TOTAL     ACCESS:    1739675  HIT:    1498475  MISS:     241200
L2C LOAD      ACCESS:     226176  HIT:     138391  MISS:      87785
L2C RFO       ACCESS:      88748  HIT:      23040  MISS:      65708
L2C PREFETCH  ACCESS:    1299251  HIT:    1211961  MISS:      87290
L2C WRITEBACK ACCESS:     125500  HIT:     125083  MISS:        417
L2C PREFETCH  REQUESTED:    1092487  ISSUED:    1091992  USEFUL:      14996  USELESS:      71937
L2C AVERAGE MISS LATENCY: 63.1982 cycles
LLC TOTAL     ACCESS:     606776  HIT:     542629  MISS:      64147
LLC LOAD      ACCESS:      87778  HIT:      81268  MISS:       6510
LLC RFO       ACCESS:      65708  HIT:      36101  MISS:      29607
LLC PREFETCH  ACCESS:     369287  HIT:     341501  MISS:      27786
LLC WRITEBACK ACCESS:      84003  HIT:      83759  MISS:        244
LLC PREFETCH  REQUESTED:          0  ISSUED:          0  USEFUL:       6365  USELESS:      20579
LLC AVERAGE MISS LATENCY: 176.691 cycles
Major fault: 0 Minor fault: 3091
CPU 0 L1I EPI prefetcher final stats
CPU 0 L1D next line prefetcher final stats

DRAM Statistics
 CHANNEL 0
 RQ ROW_BUFFER_HIT:      21879  ROW_BUFFER_MISS:      42024
 DBUS_CONGESTED:      43224
 WQ ROW_BUFFER_HIT:       8740  ROW_BUFFER_MISS:      28278  FULL:          0

 AVG_CONGESTED_CYCLE: 6

CPU 0 Branch Prediction Accuracy: 99.2117% MPKI: 1.49752 Average ROB Occupancy at Mispredict: 108.252

Branch types
NOT_BRANCH: 40501616 81.0032%
BRANCH_DIRECT_JUMP: 517397 1.03479%
BRANCH_INDIRECT: 112348 0.224696%
BRANCH_CONDITIONAL: 6698737 13.3975%
BRANCH_DIRECT_CALL: 960974 1.92195%
BRANCH_INDIRECT_CALL: 123707 0.247414%
BRANCH_RETURN: 1084929 2.16986%
BRANCH_OTHER: 0 0%

