Initialize SIGNATURE TABLE
ST_SET: 1
ST_WAY: 256
ST_TAG_BIT: 16
ST_TAG_MASK: ffff

Initialize PATTERN TABLE
PT_SET: 512
PT_WAY: 4
SIG_DELTA_BIT: 7
C_SIG_BIT: 4
C_DELTA_BIT: 4

Initialize PREFETCH FILTER
FILTER_SET: 1024

*** ChampSim Multicore Out-of-Order Simulator ***

Warmup Instructions: 50000000
Simulation Instructions: 50000000
Number of CPUs: 1
LLC sets: 2048
LLC ways: 16
Off-chip DRAM Size: 4096 MB Channels: 1 Width: 64-bit Data Rate: 3200 MT/s

CPU 0 runs /home/ykhodke/ChampSim/dpc3_traces/client_005.champsimtrace.xz
L1I D-JOLT instruction prefetcher has been constructed!
CPU 0 L1D next line prefetcher
Heartbeat CPU 0 instructions: 10000001 cycles: 3291507 heartbeat IPC: 3.03812 cumulative IPC: 3.03812 (Simulation time: 0 hr 2 min 27 sec) 
Heartbeat CPU 0 instructions: 20000002 cycles: 6698061 heartbeat IPC: 2.93552 cumulative IPC: 2.98594 (Simulation time: 0 hr 5 min 33 sec) 
Heartbeat CPU 0 instructions: 30000001 cycles: 10391357 heartbeat IPC: 2.70761 cumulative IPC: 2.88701 (Simulation time: 0 hr 8 min 43 sec) 
Heartbeat CPU 0 instructions: 40000000 cycles: 14069264 heartbeat IPC: 2.71894 cumulative IPC: 2.84308 (Simulation time: 0 hr 11 min 31 sec) 
Heartbeat CPU 0 instructions: 50000001 cycles: 17342859 heartbeat IPC: 3.05475 cumulative IPC: 2.88303 (Simulation time: 0 hr 13 min 55 sec) 

Warmup complete CPU 0 instructions: 50000001 cycles: 17342859 (Simulation time: 0 hr 13 min 55 sec) 

Heartbeat CPU 0 instructions: 60000002 cycles: 25578361 heartbeat IPC: 1.21426 cumulative IPC: 1.21426 (Simulation time: 0 hr 16 min 32 sec) 
Heartbeat CPU 0 instructions: 70000003 cycles: 33086341 heartbeat IPC: 1.33192 cumulative IPC: 1.27037 (Simulation time: 0 hr 19 min 15 sec) 
Heartbeat CPU 0 instructions: 80000001 cycles: 39984171 heartbeat IPC: 1.44973 cumulative IPC: 1.32501 (Simulation time: 0 hr 22 min 46 sec) 
Heartbeat CPU 0 instructions: 90000002 cycles: 49578827 heartbeat IPC: 1.04225 cumulative IPC: 1.24085 (Simulation time: 0 hr 25 min 35 sec) 
Heartbeat CPU 0 instructions: 100000002 cycles: 57485159 heartbeat IPC: 1.26481 cumulative IPC: 1.24557 (Simulation time: 0 hr 27 min 11 sec) 
Finished CPU 0 instructions: 50000001 cycles: 40142300 cumulative IPC: 1.24557 (Simulation time: 0 hr 27 min 11 sec) 

ChampSim completed all CPUs

Region of Interest Statistics

CPU 0 cumulative IPC: 1.24557 instructions: 50000001 cycles: 40142300
L1D TOTAL     ACCESS:   19686393  HIT:   19150535  MISS:     535858
L1D LOAD      ACCESS:    6672383  HIT:    6500849  MISS:     171534
L1D RFO       ACCESS:    6794055  HIT:    6609458  MISS:     184597
L1D PREFETCH  ACCESS:    6219955  HIT:    6040228  MISS:     179727
L1D WRITEBACK ACCESS:          0  HIT:          0  MISS:          0
L1D PREFETCH  REQUESTED:    6696205  ISSUED:    6326086  USEFUL:      59566  USELESS:     120048
L1D AVERAGE MISS LATENCY: 94.7065 cycles
L1I TOTAL     ACCESS:   16783316  HIT:   14644479  MISS:    2138837
L1I LOAD      ACCESS:    9358653  HIT:    9156440  MISS:     202213
L1I RFO       ACCESS:          0  HIT:          0  MISS:          0
L1I PREFETCH  ACCESS:    7424663  HIT:    5488039  MISS:    1936624
L1I WRITEBACK ACCESS:          0  HIT:          0  MISS:          0
L1I PREFETCH  REQUESTED:    7646529  ISSUED:    7568905  USEFUL:     843164  USELESS:    1093453
L1I AVERAGE MISS LATENCY: 16.9672 cycles
L2C TOTAL     ACCESS:    3803802  HIT:    3412979  MISS:     390823
L2C LOAD      ACCESS:     341569  HIT:     231418  MISS:     110151
L2C RFO       ACCESS:     180869  HIT:      31674  MISS:     149195
L2C PREFETCH  ACCESS:    3028286  HIT:    2898034  MISS:     130252
L2C WRITEBACK ACCESS:     253078  HIT:     251853  MISS:       1225
L2C PREFETCH  REQUESTED:    1683443  ISSUED:    1683340  USEFUL:      18411  USELESS:     111307
L2C AVERAGE MISS LATENCY: 126.371 cycles
LLC TOTAL     ACCESS:     891165  HIT:     592198  MISS:     298967
LLC LOAD      ACCESS:     110128  HIT:      61664  MISS:      48464
LLC RFO       ACCESS:     149189  HIT:      14895  MISS:     134294
LLC PREFETCH  ACCESS:     432279  HIT:     316952  MISS:     115327
LLC WRITEBACK ACCESS:     199569  HIT:     198687  MISS:        882
LLC PREFETCH  REQUESTED:          0  ISSUED:          0  USEFUL:      26573  USELESS:      87926
LLC AVERAGE MISS LATENCY: 165.869 cycles
Major fault: 0 Minor fault: 6090
CPU 0 L1D next line prefetcher final stats

DRAM Statistics
 CHANNEL 0
 RQ ROW_BUFFER_HIT:      94582  ROW_BUFFER_MISS:     203497
 DBUS_CONGESTED:     231221
 WQ ROW_BUFFER_HIT:      53988  ROW_BUFFER_MISS:     128697  FULL:          0

 AVG_CONGESTED_CYCLE: 6

CPU 0 Branch Prediction Accuracy: 97.8666% MPKI: 3.9013 Average ROB Occupancy at Mispredict: 84.9428

Branch types
NOT_BRANCH: 40856330 81.7127%
BRANCH_DIRECT_JUMP: 484667 0.969334%
BRANCH_INDIRECT: 85086 0.170172%
BRANCH_CONDITIONAL: 6230887 12.4618%
BRANCH_DIRECT_CALL: 1028917 2.05783%
BRANCH_INDIRECT_CALL: 141825 0.28365%
BRANCH_RETURN: 1171986 2.34397%
BRANCH_OTHER: 0 0%

