Initialize SIGNATURE TABLE
ST_SET: 1
ST_WAY: 256
ST_TAG_BIT: 16
ST_TAG_MASK: ffff

Initialize PATTERN TABLE
PT_SET: 512
PT_WAY: 4
SIG_DELTA_BIT: 7
C_SIG_BIT: 4
C_DELTA_BIT: 4

Initialize PREFETCH FILTER
FILTER_SET: 1024

*** ChampSim Multicore Out-of-Order Simulator ***

Warmup Instructions: 50000000
Simulation Instructions: 50000000
Number of CPUs: 1
LLC sets: 2048
LLC ways: 16
Off-chip DRAM Size: 4096 MB Channels: 1 Width: 64-bit Data Rate: 3200 MT/s

CPU 0 runs /home/ykhodke/ChampSim/dpc3_traces/client_006.champsimtrace.xz
LHT KB: 126.25
SCC KB: 1.56
Total KB: 127.81
CPU 0 L1D next line prefetcher
Heartbeat CPU 0 instructions: 10000003 cycles: 4267490 heartbeat IPC: 2.3433 cumulative IPC: 2.3433 (Simulation time: 0 hr 3 min 4 sec) 
Heartbeat CPU 0 instructions: 20000000 cycles: 8307654 heartbeat IPC: 2.47515 cumulative IPC: 2.40742 (Simulation time: 0 hr 6 min 23 sec) 
Heartbeat CPU 0 instructions: 30000003 cycles: 11371604 heartbeat IPC: 3.26376 cumulative IPC: 2.63815 (Simulation time: 0 hr 9 min 31 sec) 
Heartbeat CPU 0 instructions: 40000000 cycles: 14716468 heartbeat IPC: 2.98966 cumulative IPC: 2.71804 (Simulation time: 0 hr 12 min 30 sec) 
Heartbeat CPU 0 instructions: 50000003 cycles: 18821298 heartbeat IPC: 2.43616 cumulative IPC: 2.65657 (Simulation time: 0 hr 15 min 28 sec) 

Warmup complete CPU 0 instructions: 50000003 cycles: 18821298 (Simulation time: 0 hr 15 min 28 sec) 

Heartbeat CPU 0 instructions: 60000001 cycles: 26677328 heartbeat IPC: 1.27291 cumulative IPC: 1.27291 (Simulation time: 0 hr 18 min 2 sec) 
Heartbeat CPU 0 instructions: 70000003 cycles: 36402705 heartbeat IPC: 1.02824 cumulative IPC: 1.13757 (Simulation time: 0 hr 20 min 37 sec) 
Heartbeat CPU 0 instructions: 80000002 cycles: 44703072 heartbeat IPC: 1.20477 cumulative IPC: 1.15912 (Simulation time: 0 hr 22 min 56 sec) 
Heartbeat CPU 0 instructions: 90000003 cycles: 52531412 heartbeat IPC: 1.27741 cumulative IPC: 1.18659 (Simulation time: 0 hr 24 min 53 sec) 
Heartbeat CPU 0 instructions: 100000001 cycles: 60699197 heartbeat IPC: 1.22432 cumulative IPC: 1.19395 (Simulation time: 0 hr 27 min 0 sec) 
Finished CPU 0 instructions: 50000002 cycles: 41877900 cumulative IPC: 1.19395 (Simulation time: 0 hr 27 min 0 sec) 

ChampSim completed all CPUs

Region of Interest Statistics

CPU 0 cumulative IPC: 1.19395 instructions: 50000002 cycles: 41877900
L1D TOTAL     ACCESS:   16613375  HIT:   15886302  MISS:     727073
L1D LOAD      ACCESS:    6374500  HIT:    5968516  MISS:     405984
L1D RFO       ACCESS:    4334554  HIT:    4291927  MISS:      42627
L1D PREFETCH  ACCESS:    5904321  HIT:    5625859  MISS:     278462
L1D WRITEBACK ACCESS:          0  HIT:          0  MISS:          0
L1D PREFETCH  REQUESTED:    6415754  ISSUED:    6235342  USEFUL:     117390  USELESS:     160946
L1D AVERAGE MISS LATENCY: 81.1379 cycles
L1I TOTAL     ACCESS:   14755022  HIT:   13976992  MISS:     778030
L1I LOAD      ACCESS:    8446678  HIT:    8361441  MISS:      85237
L1I RFO       ACCESS:          0  HIT:          0  MISS:          0
L1I PREFETCH  ACCESS:    6308344  HIT:    5615551  MISS:     692793
L1I WRITEBACK ACCESS:          0  HIT:          0  MISS:          0
L1I PREFETCH  REQUESTED:    7029669  ISSUED:    7029669  USEFUL:     595849  USELESS:      97133
L1I AVERAGE MISS LATENCY: 19.908 cycles
L2C TOTAL     ACCESS:    2142112  HIT:    1597041  MISS:     545071
L2C LOAD      ACCESS:     345764  HIT:     110836  MISS:     234928
L2C RFO       ACCESS:      42347  HIT:      12396  MISS:      29951
L2C PREFETCH  ACCESS:    1578019  HIT:    1298541  MISS:     279478
L2C WRITEBACK ACCESS:     175982  HIT:     175268  MISS:        714
L2C PREFETCH  REQUESTED:    2223309  ISSUED:    2201927  USEFUL:      10140  USELESS:     270716
L2C AVERAGE MISS LATENCY: 114.791 cycles
LLC TOTAL     ACCESS:    1217771  HIT:     843393  MISS:     374378
LLC LOAD      ACCESS:     224676  HIT:     134509  MISS:      90167
LLC RFO       ACCESS:      29951  HIT:       5219  MISS:      24732
LLC PREFETCH  ACCESS:     828749  HIT:     569800  MISS:     258949
LLC WRITEBACK ACCESS:     134395  HIT:     133865  MISS:        530
LLC PREFETCH  REQUESTED:          0  ISSUED:          0  USEFUL:      40490  USELESS:     221937
LLC AVERAGE MISS LATENCY: 197.395 cycles
Major fault: 0 Minor fault: 10544
CPU 0 L1D next line prefetcher final stats

DRAM Statistics
 CHANNEL 0
 RQ ROW_BUFFER_HIT:      97607  ROW_BUFFER_MISS:     276226
 DBUS_CONGESTED:     218868
 WQ ROW_BUFFER_HIT:      21538  ROW_BUFFER_MISS:      92878  FULL:          0

 AVG_CONGESTED_CYCLE: 5

CPU 0 Branch Prediction Accuracy: 98.1683% MPKI: 3.13642 Average ROB Occupancy at Mispredict: 86.3513

Branch types
NOT_BRANCH: 41438060 82.8761%
BRANCH_DIRECT_JUMP: 413829 0.827658%
BRANCH_INDIRECT: 47058 0.094116%
BRANCH_CONDITIONAL: 6843835 13.6877%
BRANCH_DIRECT_CALL: 536885 1.07377%
BRANCH_INDIRECT_CALL: 90642 0.181284%
BRANCH_RETURN: 629329 1.25866%
BRANCH_OTHER: 0 0%

