Initialize SIGNATURE TABLE
ST_SET: 1
ST_WAY: 256
ST_TAG_BIT: 16
ST_TAG_MASK: ffff

Initialize PATTERN TABLE
PT_SET: 512
PT_WAY: 4
SIG_DELTA_BIT: 7
C_SIG_BIT: 4
C_DELTA_BIT: 4

Initialize PREFETCH FILTER
FILTER_SET: 1024

*** ChampSim Multicore Out-of-Order Simulator ***

Warmup Instructions: 50000000
Simulation Instructions: 50000000
Number of CPUs: 1
LLC sets: 2048
LLC ways: 16
Off-chip DRAM Size: 4096 MB Channels: 1 Width: 64-bit Data Rate: 3200 MT/s

CPU 0 runs /home/ykhodke/ChampSim/dpc3_traces/client_006.champsimtrace.xz
L1I D-JOLT instruction prefetcher has been constructed!
CPU 0 L1D next line prefetcher
Heartbeat CPU 0 instructions: 10000003 cycles: 4267288 heartbeat IPC: 2.34341 cumulative IPC: 2.34341 (Simulation time: 0 hr 3 min 20 sec) 
Heartbeat CPU 0 instructions: 20000000 cycles: 8307570 heartbeat IPC: 2.47507 cumulative IPC: 2.40744 (Simulation time: 0 hr 6 min 42 sec) 
Heartbeat CPU 0 instructions: 30000003 cycles: 11371242 heartbeat IPC: 3.26406 cumulative IPC: 2.63823 (Simulation time: 0 hr 9 min 24 sec) 
Heartbeat CPU 0 instructions: 40000000 cycles: 14716362 heartbeat IPC: 2.98943 cumulative IPC: 2.71806 (Simulation time: 0 hr 12 min 30 sec) 
Heartbeat CPU 0 instructions: 50000003 cycles: 18821259 heartbeat IPC: 2.43612 cumulative IPC: 2.65657 (Simulation time: 0 hr 15 min 43 sec) 

Warmup complete CPU 0 instructions: 50000003 cycles: 18821259 (Simulation time: 0 hr 15 min 43 sec) 

Heartbeat CPU 0 instructions: 60000001 cycles: 26682973 heartbeat IPC: 1.27199 cumulative IPC: 1.27199 (Simulation time: 0 hr 18 min 32 sec) 
Heartbeat CPU 0 instructions: 70000000 cycles: 36402692 heartbeat IPC: 1.02884 cumulative IPC: 1.13756 (Simulation time: 0 hr 21 min 15 sec) 
Heartbeat CPU 0 instructions: 80000002 cycles: 44769825 heartbeat IPC: 1.19515 cumulative IPC: 1.15613 (Simulation time: 0 hr 23 min 50 sec) 
Heartbeat CPU 0 instructions: 90000003 cycles: 52589684 heartbeat IPC: 1.2788 cumulative IPC: 1.18454 (Simulation time: 0 hr 25 min 51 sec) 
Heartbeat CPU 0 instructions: 100000001 cycles: 60811281 heartbeat IPC: 1.21631 cumulative IPC: 1.19076 (Simulation time: 0 hr 27 min 50 sec) 
Finished CPU 0 instructions: 50000002 cycles: 41990023 cumulative IPC: 1.19076 (Simulation time: 0 hr 27 min 50 sec) 

ChampSim completed all CPUs

Region of Interest Statistics

CPU 0 cumulative IPC: 1.19076 instructions: 50000002 cycles: 41990023
L1D TOTAL     ACCESS:   16586791  HIT:   15859643  MISS:     727148
L1D LOAD      ACCESS:    6363129  HIT:    5956189  MISS:     406940
L1D RFO       ACCESS:    4332097  HIT:    4289499  MISS:      42598
L1D PREFETCH  ACCESS:    5891565  HIT:    5613955  MISS:     277610
L1D WRITEBACK ACCESS:          0  HIT:          0  MISS:          0
L1D PREFETCH  REQUESTED:    6405056  ISSUED:    6223990  USEFUL:     116593  USELESS:     160891
L1D AVERAGE MISS LATENCY: 82.7483 cycles
L1I TOTAL     ACCESS:   13535481  HIT:   12286618  MISS:    1248863
L1I LOAD      ACCESS:    8471598  HIT:    8457408  MISS:      14190
L1I RFO       ACCESS:          0  HIT:          0  MISS:          0
L1I PREFETCH  ACCESS:    5063883  HIT:    3829210  MISS:    1234673
L1I WRITEBACK ACCESS:          0  HIT:          0  MISS:          0
L1I PREFETCH  REQUESTED:    5321662  ISSUED:    5211887  USEFUL:     837385  USELESS:     397202
L1I AVERAGE MISS LATENCY: 21.7883 cycles
L2C TOTAL     ACCESS:    2795466  HIT:    2242388  MISS:     553078
L2C LOAD      ACCESS:     351369  HIT:     112429  MISS:     238940
L2C RFO       ACCESS:      42329  HIT:      12173  MISS:      30156
L2C PREFETCH  ACCESS:    2225796  HIT:    1942574  MISS:     283222
L2C WRITEBACK ACCESS:     175972  HIT:     175212  MISS:        760
L2C PREFETCH  REQUESTED:    2949833  ISSUED:    2920848  USEFUL:      11016  USELESS:     273175
L2C AVERAGE MISS LATENCY: 117.055 cycles
LLC TOTAL     ACCESS:    1473071  HIT:    1070829  MISS:     402242
LLC LOAD      ACCESS:     229204  HIT:     134202  MISS:      95002
LLC RFO       ACCESS:      30156  HIT:       5337  MISS:      24819
LLC PREFETCH  ACCESS:    1079037  HIT:     797227  MISS:     281810
LLC WRITEBACK ACCESS:     134674  HIT:     134063  MISS:        611
LLC PREFETCH  REQUESTED:          0  ISSUED:          0  USEFUL:      42656  USELESS:     242700
LLC AVERAGE MISS LATENCY: 202.177 cycles
Major fault: 0 Minor fault: 10537
CPU 0 L1D next line prefetcher final stats

DRAM Statistics
 CHANNEL 0
 RQ ROW_BUFFER_HIT:     102930  ROW_BUFFER_MISS:     298669
 DBUS_CONGESTED:     230932
 WQ ROW_BUFFER_HIT:      22052  ROW_BUFFER_MISS:      93329  FULL:          0

 AVG_CONGESTED_CYCLE: 5

CPU 0 Branch Prediction Accuracy: 98.1683% MPKI: 3.13642 Average ROB Occupancy at Mispredict: 87.9269

Branch types
NOT_BRANCH: 41438064 82.8761%
BRANCH_DIRECT_JUMP: 413829 0.827658%
BRANCH_INDIRECT: 47058 0.094116%
BRANCH_CONDITIONAL: 6843835 13.6877%
BRANCH_DIRECT_CALL: 536885 1.07377%
BRANCH_INDIRECT_CALL: 90642 0.181284%
BRANCH_RETURN: 629329 1.25866%
BRANCH_OTHER: 0 0%

