Initialize SIGNATURE TABLE
ST_SET: 1
ST_WAY: 256
ST_TAG_BIT: 16
ST_TAG_MASK: ffff

Initialize PATTERN TABLE
PT_SET: 512
PT_WAY: 4
SIG_DELTA_BIT: 7
C_SIG_BIT: 4
C_DELTA_BIT: 4

Initialize PREFETCH FILTER
FILTER_SET: 1024

*** ChampSim Multicore Out-of-Order Simulator ***

Warmup Instructions: 50000000
Simulation Instructions: 50000000
Number of CPUs: 1
LLC sets: 2048
LLC ways: 16
Off-chip DRAM Size: 4096 MB Channels: 1 Width: 64-bit Data Rate: 3200 MT/s

CPU 0 runs /home/ykhodke/ChampSim/dpc3_traces/client_008.champsimtrace.xz
LHT KB: 126.25
SCC KB: 1.56
Total KB: 127.81
CPU 0 L1D next line prefetcher
Heartbeat CPU 0 instructions: 10000001 cycles: 3752863 heartbeat IPC: 2.66463 cumulative IPC: 2.66463 (Simulation time: 0 hr 3 min 31 sec) 
Heartbeat CPU 0 instructions: 20000001 cycles: 7527389 heartbeat IPC: 2.64934 cumulative IPC: 2.65696 (Simulation time: 0 hr 7 min 6 sec) 
Heartbeat CPU 0 instructions: 30000000 cycles: 11253139 heartbeat IPC: 2.68402 cumulative IPC: 2.66592 (Simulation time: 0 hr 10 min 42 sec) 
Heartbeat CPU 0 instructions: 40000002 cycles: 15045103 heartbeat IPC: 2.63716 cumulative IPC: 2.65867 (Simulation time: 0 hr 15 min 13 sec) 
Heartbeat CPU 0 instructions: 50000003 cycles: 18834887 heartbeat IPC: 2.63867 cumulative IPC: 2.65465 (Simulation time: 0 hr 18 min 56 sec) 

Warmup complete CPU 0 instructions: 50000003 cycles: 18834887 (Simulation time: 0 hr 18 min 56 sec) 

Heartbeat CPU 0 instructions: 60000000 cycles: 26933133 heartbeat IPC: 1.23483 cumulative IPC: 1.23483 (Simulation time: 0 hr 22 min 19 sec) 
Heartbeat CPU 0 instructions: 70000000 cycles: 34822081 heartbeat IPC: 1.2676 cumulative IPC: 1.251 (Simulation time: 0 hr 25 min 53 sec) 
Heartbeat CPU 0 instructions: 80000001 cycles: 43813374 heartbeat IPC: 1.11219 cumulative IPC: 1.20103 (Simulation time: 0 hr 27 min 58 sec) 
Heartbeat CPU 0 instructions: 90000001 cycles: 51191971 heartbeat IPC: 1.35527 cumulative IPC: 1.23621 (Simulation time: 0 hr 29 min 14 sec) 
Heartbeat CPU 0 instructions: 100000001 cycles: 59231128 heartbeat IPC: 1.24391 cumulative IPC: 1.23774 (Simulation time: 0 hr 29 min 54 sec) 
Finished CPU 0 instructions: 50000002 cycles: 40396242 cumulative IPC: 1.23774 (Simulation time: 0 hr 29 min 54 sec) 

ChampSim completed all CPUs

Region of Interest Statistics

CPU 0 cumulative IPC: 1.23774 instructions: 50000002 cycles: 40396242
L1D TOTAL     ACCESS:   20479604  HIT:   18851054  MISS:    1628550
L1D LOAD      ACCESS:    8061639  HIT:    7262324  MISS:     799315
L1D RFO       ACCESS:    4813686  HIT:    4704093  MISS:     109593
L1D PREFETCH  ACCESS:    7604279  HIT:    6884637  MISS:     719642
L1D WRITEBACK ACCESS:          0  HIT:          0  MISS:          0
L1D PREFETCH  REQUESTED:    8131329  ISSUED:    7962976  USEFUL:     199791  USELESS:     519856
L1D AVERAGE MISS LATENCY: 32.9503 cycles
L1I TOTAL     ACCESS:   19419995  HIT:   18163953  MISS:    1256042
L1I LOAD      ACCESS:    9720682  HIT:    9577845  MISS:     142837
L1I RFO       ACCESS:          0  HIT:          0  MISS:          0
L1I PREFETCH  ACCESS:    9699313  HIT:    8586108  MISS:    1113205
L1I WRITEBACK ACCESS:          0  HIT:          0  MISS:          0
L1I PREFETCH  REQUESTED:   11215493  ISSUED:   11215493  USEFUL:     673252  USELESS:     440009
L1I AVERAGE MISS LATENCY: 15.9173 cycles
L2C TOTAL     ACCESS:    3991443  HIT:    3536037  MISS:     455406
L2C LOAD      ACCESS:     772481  HIT:     613580  MISS:     158901
L2C RFO       ACCESS:     104305  HIT:      18244  MISS:      86061
L2C PREFETCH  ACCESS:    2932671  HIT:    2722684  MISS:     209987
L2C WRITEBACK ACCESS:     181986  HIT:     181529  MISS:        457
L2C PREFETCH  REQUESTED:    2694350  ISSUED:    2690450  USEFUL:      17933  USELESS:     194207
L2C AVERAGE MISS LATENCY: 78.8441 cycles
LLC TOTAL     ACCESS:    1328747  HIT:    1145144  MISS:     183603
LLC LOAD      ACCESS:     158806  HIT:     139009  MISS:      19797
LLC RFO       ACCESS:      86060  HIT:      15069  MISS:      70991
LLC PREFETCH  ACCESS:     948101  HIT:     855653  MISS:      92448
LLC WRITEBACK ACCESS:     135780  HIT:     135413  MISS:        367
LLC PREFETCH  REQUESTED:          0  ISSUED:          0  USEFUL:      21638  USELESS:      80013
LLC AVERAGE MISS LATENCY: 170.561 cycles
Major fault: 0 Minor fault: 5321
CPU 0 L1D next line prefetcher final stats

DRAM Statistics
 CHANNEL 0
 RQ ROW_BUFFER_HIT:      53100  ROW_BUFFER_MISS:     130127
 DBUS_CONGESTED:     101346
 WQ ROW_BUFFER_HIT:      23594  ROW_BUFFER_MISS:      67387  FULL:          0

 AVG_CONGESTED_CYCLE: 6

CPU 0 Branch Prediction Accuracy: 98.6482% MPKI: 3.1551 Average ROB Occupancy at Mispredict: 97.5946

Branch types
NOT_BRANCH: 38329598 76.6592%
BRANCH_DIRECT_JUMP: 510116 1.02023%
BRANCH_INDIRECT: 225730 0.45146%
BRANCH_CONDITIONAL: 8366762 16.7335%
BRANCH_DIRECT_CALL: 600748 1.2015%
BRANCH_INDIRECT_CALL: 682990 1.36598%
BRANCH_RETURN: 1283974 2.56795%
BRANCH_OTHER: 0 0%

