Initialize SIGNATURE TABLE
ST_SET: 1
ST_WAY: 256
ST_TAG_BIT: 16
ST_TAG_MASK: ffff

Initialize PATTERN TABLE
PT_SET: 512
PT_WAY: 4
SIG_DELTA_BIT: 7
C_SIG_BIT: 4
C_DELTA_BIT: 4

Initialize PREFETCH FILTER
FILTER_SET: 1024

*** ChampSim Multicore Out-of-Order Simulator ***

Warmup Instructions: 50000000
Simulation Instructions: 50000000
Number of CPUs: 1
LLC sets: 2048
LLC ways: 16
Off-chip DRAM Size: 4096 MB Channels: 1 Width: 64-bit Data Rate: 3200 MT/s

CPU 0 runs /home/ykhodke/ChampSim/dpc3_traces/client_007.champsimtrace.xz
LHT KB: 126.25
SCC KB: 1.56
Total KB: 127.81
CPU 0 L1D next line prefetcher
Heartbeat CPU 0 instructions: 10000001 cycles: 3642926 heartbeat IPC: 2.74505 cumulative IPC: 2.74505 (Simulation time: 0 hr 2 min 32 sec) 
Heartbeat CPU 0 instructions: 20000003 cycles: 7035542 heartbeat IPC: 2.94758 cumulative IPC: 2.84271 (Simulation time: 0 hr 4 min 55 sec) 
Heartbeat CPU 0 instructions: 30000000 cycles: 10908384 heartbeat IPC: 2.58208 cumulative IPC: 2.75018 (Simulation time: 0 hr 7 min 40 sec) 
Heartbeat CPU 0 instructions: 40000003 cycles: 15068550 heartbeat IPC: 2.40375 cumulative IPC: 2.65454 (Simulation time: 0 hr 10 min 17 sec) 
Heartbeat CPU 0 instructions: 50000002 cycles: 18473951 heartbeat IPC: 2.93651 cumulative IPC: 2.70651 (Simulation time: 0 hr 12 min 43 sec) 

Warmup complete CPU 0 instructions: 50000002 cycles: 18473951 (Simulation time: 0 hr 12 min 43 sec) 

Heartbeat CPU 0 instructions: 60000003 cycles: 25360835 heartbeat IPC: 1.45204 cumulative IPC: 1.45204 (Simulation time: 0 hr 15 min 27 sec) 
Heartbeat CPU 0 instructions: 70000003 cycles: 34216767 heartbeat IPC: 1.12919 cumulative IPC: 1.27042 (Simulation time: 0 hr 18 min 12 sec) 
Heartbeat CPU 0 instructions: 80000002 cycles: 39514329 heartbeat IPC: 1.88766 cumulative IPC: 1.42583 (Simulation time: 0 hr 20 min 7 sec) 
Heartbeat CPU 0 instructions: 90000002 cycles: 47125241 heartbeat IPC: 1.3139 cumulative IPC: 1.3961 (Simulation time: 0 hr 22 min 50 sec) 
Heartbeat CPU 0 instructions: 100000002 cycles: 56074023 heartbeat IPC: 1.11747 cumulative IPC: 1.32978 (Simulation time: 0 hr 25 min 0 sec) 
Finished CPU 0 instructions: 50000000 cycles: 37600072 cumulative IPC: 1.32978 (Simulation time: 0 hr 25 min 0 sec) 

ChampSim completed all CPUs

Region of Interest Statistics

CPU 0 cumulative IPC: 1.32978 instructions: 50000000 cycles: 37600072
L1D TOTAL     ACCESS:   21202164  HIT:   20033177  MISS:    1168987
L1D LOAD      ACCESS:    8371926  HIT:    7832663  MISS:     539263
L1D RFO       ACCESS:    4868927  HIT:    4777901  MISS:      91026
L1D PREFETCH  ACCESS:    7961311  HIT:    7422613  MISS:     538698
L1D WRITEBACK ACCESS:          0  HIT:          0  MISS:          0
L1D PREFETCH  REQUESTED:    8424244  ISSUED:    8181027  USEFUL:     158221  USELESS:     380492
L1D AVERAGE MISS LATENCY: 34.7265 cycles
L1I TOTAL     ACCESS:   16758310  HIT:   15386605  MISS:    1371705
L1I LOAD      ACCESS:    9116917  HIT:    9057505  MISS:      59412
L1I RFO       ACCESS:          0  HIT:          0  MISS:          0
L1I PREFETCH  ACCESS:    7641393  HIT:    6329100  MISS:    1312293
L1I WRITEBACK ACCESS:          0  HIT:          0  MISS:          0
L1I PREFETCH  REQUESTED:    8475999  ISSUED:    8475999  USEFUL:     840172  USELESS:     472141
L1I AVERAGE MISS LATENCY: 15.9068 cycles
L2C TOTAL     ACCESS:    3696878  HIT:    3485606  MISS:     211272
L2C LOAD      ACCESS:     520914  HIT:     453094  MISS:      67820
L2C RFO       ACCESS:      89473  HIT:      47891  MISS:      41582
L2C PREFETCH  ACCESS:    2758827  HIT:    2657151  MISS:     101676
L2C WRITEBACK ACCESS:     327664  HIT:     327470  MISS:        194
L2C PREFETCH  REQUESTED:    2704703  ISSUED:    2695256  USEFUL:       8875  USELESS:      92928
L2C AVERAGE MISS LATENCY: 126.645 cycles
LLC TOTAL     ACCESS:     995941  HIT:     825629  MISS:     170312
LLC LOAD      ACCESS:      67735  HIT:      33526  MISS:      34209
LLC RFO       ACCESS:      41582  HIT:       7117  MISS:      34465
LLC PREFETCH  ACCESS:     811907  HIT:     710556  MISS:     101351
LLC WRITEBACK ACCESS:      74717  HIT:      74430  MISS:        287
LLC PREFETCH  REQUESTED:          0  ISSUED:          0  USEFUL:      17704  USELESS:      85207
LLC AVERAGE MISS LATENCY: 186.328 cycles
Major fault: 0 Minor fault: 4426
CPU 0 L1D next line prefetcher final stats

DRAM Statistics
 CHANNEL 0
 RQ ROW_BUFFER_HIT:      36094  ROW_BUFFER_MISS:     133922
 DBUS_CONGESTED:      94928
 WQ ROW_BUFFER_HIT:      12811  ROW_BUFFER_MISS:      44903  FULL:          0

 AVG_CONGESTED_CYCLE: 5

CPU 0 Branch Prediction Accuracy: 98.8607% MPKI: 1.8623 Average ROB Occupancy at Mispredict: 113.885

Branch types
NOT_BRANCH: 41826773 83.6535%
BRANCH_DIRECT_JUMP: 735330 1.47066%
BRANCH_INDIRECT: 269194 0.538388%
BRANCH_CONDITIONAL: 5957947 11.9159%
BRANCH_DIRECT_CALL: 368758 0.737516%
BRANCH_INDIRECT_CALL: 226975 0.45395%
BRANCH_RETURN: 614696 1.22939%
BRANCH_OTHER: 0 0%

