Initialize SIGNATURE TABLE
ST_SET: 1
ST_WAY: 256
ST_TAG_BIT: 16
ST_TAG_MASK: ffff

Initialize PATTERN TABLE
PT_SET: 512
PT_WAY: 4
SIG_DELTA_BIT: 7
C_SIG_BIT: 4
C_DELTA_BIT: 4

Initialize PREFETCH FILTER
FILTER_SET: 1024

*** ChampSim Multicore Out-of-Order Simulator ***

Warmup Instructions: 50000000
Simulation Instructions: 50000000
Number of CPUs: 1
LLC sets: 2048
LLC ways: 16
Off-chip DRAM Size: 4096 MB Channels: 1 Width: 64-bit Data Rate: 3200 MT/s

CPU 0 runs /home/ykhodke/ChampSim/dpc3_traces/client_008.champsimtrace.xz
L1I D-JOLT instruction prefetcher has been constructed!
CPU 0 L1D next line prefetcher
Heartbeat CPU 0 instructions: 10000001 cycles: 3754887 heartbeat IPC: 2.6632 cumulative IPC: 2.6632 (Simulation time: 0 hr 3 min 42 sec) 
Heartbeat CPU 0 instructions: 20000001 cycles: 7531922 heartbeat IPC: 2.64758 cumulative IPC: 2.65536 (Simulation time: 0 hr 7 min 43 sec) 
Heartbeat CPU 0 instructions: 30000000 cycles: 11259588 heartbeat IPC: 2.68264 cumulative IPC: 2.6644 (Simulation time: 0 hr 11 min 7 sec) 
Heartbeat CPU 0 instructions: 40000002 cycles: 15055695 heartbeat IPC: 2.63428 cumulative IPC: 2.6568 (Simulation time: 0 hr 14 min 21 sec) 
Heartbeat CPU 0 instructions: 50000003 cycles: 18848711 heartbeat IPC: 2.63642 cumulative IPC: 2.6527 (Simulation time: 0 hr 17 min 31 sec) 

Warmup complete CPU 0 instructions: 50000003 cycles: 18848711 (Simulation time: 0 hr 17 min 31 sec) 

Heartbeat CPU 0 instructions: 60000000 cycles: 27040068 heartbeat IPC: 1.2208 cumulative IPC: 1.2208 (Simulation time: 0 hr 20 min 44 sec) 
Heartbeat CPU 0 instructions: 70000000 cycles: 35008454 heartbeat IPC: 1.25496 cumulative IPC: 1.23764 (Simulation time: 0 hr 24 min 10 sec) 
Heartbeat CPU 0 instructions: 80000001 cycles: 44104445 heartbeat IPC: 1.09939 cumulative IPC: 1.18785 (Simulation time: 0 hr 26 min 39 sec) 
Heartbeat CPU 0 instructions: 90000001 cycles: 51470912 heartbeat IPC: 1.3575 cumulative IPC: 1.22616 (Simulation time: 0 hr 28 min 33 sec) 
Heartbeat CPU 0 instructions: 100000001 cycles: 59533325 heartbeat IPC: 1.24032 cumulative IPC: 1.22897 (Simulation time: 0 hr 29 min 31 sec) 
Finished CPU 0 instructions: 50000002 cycles: 40684615 cumulative IPC: 1.22897 (Simulation time: 0 hr 29 min 31 sec) 

ChampSim completed all CPUs

Region of Interest Statistics

CPU 0 cumulative IPC: 1.22897 instructions: 50000002 cycles: 40684615
L1D TOTAL     ACCESS:   20479261  HIT:   18850828  MISS:    1628433
L1D LOAD      ACCESS:    8061831  HIT:    7262317  MISS:     799514
L1D RFO       ACCESS:    4814269  HIT:    4704778  MISS:     109491
L1D PREFETCH  ACCESS:    7603161  HIT:    6883733  MISS:     719428
L1D WRITEBACK ACCESS:          0  HIT:          0  MISS:          0
L1D PREFETCH  REQUESTED:    8131196  ISSUED:    7962403  USEFUL:     199649  USELESS:     519784
L1D AVERAGE MISS LATENCY: 33.0181 cycles
L1I TOTAL     ACCESS:   15332461  HIT:   13853582  MISS:    1478879
L1I LOAD      ACCESS:    9770046  HIT:    9726777  MISS:      43269
L1I RFO       ACCESS:          0  HIT:          0  MISS:          0
L1I PREFETCH  ACCESS:    5562415  HIT:    4126805  MISS:    1435610
L1I WRITEBACK ACCESS:          0  HIT:          0  MISS:          0
L1I PREFETCH  REQUESTED:    6034782  ISSUED:    5997624  USEFUL:     831391  USELESS:     604282
L1I AVERAGE MISS LATENCY: 17.1262 cycles
L2C TOTAL     ACCESS:    4345088  HIT:    3881127  MISS:     463961
L2C LOAD      ACCESS:     790558  HIT:     620543  MISS:     170015
L2C RFO       ACCESS:     104300  HIT:      18285  MISS:      86015
L2C PREFETCH  ACCESS:    3268238  HIT:    3060733  MISS:     207505
L2C WRITEBACK ACCESS:     181992  HIT:     181566  MISS:        426
L2C PREFETCH  REQUESTED:    3047751  ISSUED:    3028116  USEFUL:      20284  USELESS:     189036
L2C AVERAGE MISS LATENCY: 75.3776 cycles
LLC TOTAL     ACCESS:    1475421  HIT:    1291614  MISS:     183807
LLC LOAD      ACCESS:     169924  HIT:     146828  MISS:      23096
LLC RFO       ACCESS:      86009  HIT:      15555  MISS:      70454
LLC PREFETCH  ACCESS:    1083808  HIT:     993919  MISS:      89889
LLC WRITEBACK ACCESS:     135680  HIT:     135312  MISS:        368
LLC PREFETCH  REQUESTED:          0  ISSUED:          0  USEFUL:      24638  USELESS:      72920
LLC AVERAGE MISS LATENCY: 167.162 cycles
Major fault: 0 Minor fault: 5307
CPU 0 L1D next line prefetcher final stats

DRAM Statistics
 CHANNEL 0
 RQ ROW_BUFFER_HIT:      51430  ROW_BUFFER_MISS:     131994
 DBUS_CONGESTED:      96672
 WQ ROW_BUFFER_HIT:      24379  ROW_BUFFER_MISS:      65438  FULL:          0

 AVG_CONGESTED_CYCLE: 6

CPU 0 Branch Prediction Accuracy: 98.6482% MPKI: 3.1551 Average ROB Occupancy at Mispredict: 96.9271

Branch types
NOT_BRANCH: 38329598 76.6592%
BRANCH_DIRECT_JUMP: 510116 1.02023%
BRANCH_INDIRECT: 225730 0.45146%
BRANCH_CONDITIONAL: 8366762 16.7335%
BRANCH_DIRECT_CALL: 600748 1.2015%
BRANCH_INDIRECT_CALL: 682990 1.36598%
BRANCH_RETURN: 1283974 2.56795%
BRANCH_OTHER: 0 0%

