Initialize SIGNATURE TABLE
ST_SET: 1
ST_WAY: 256
ST_TAG_BIT: 16
ST_TAG_MASK: ffff

Initialize PATTERN TABLE
PT_SET: 512
PT_WAY: 4
SIG_DELTA_BIT: 7
C_SIG_BIT: 4
C_DELTA_BIT: 4

Initialize PREFETCH FILTER
FILTER_SET: 1024

*** ChampSim Multicore Out-of-Order Simulator ***

Warmup Instructions: 50000000
Simulation Instructions: 50000000
Number of CPUs: 1
LLC sets: 2048
LLC ways: 16
Off-chip DRAM Size: 4096 MB Channels: 1 Width: 64-bit Data Rate: 3200 MT/s

CPU 0 runs /home/ykhodke/ChampSim/dpc3_traces/client_001.champsimtrace.xz
L1I D-JOLT instruction prefetcher has been constructed!
CPU 0 L1D next line prefetcher
Heartbeat CPU 0 instructions: 10000003 cycles: 3411123 heartbeat IPC: 2.93159 cumulative IPC: 2.93159 (Simulation time: 0 hr 2 min 48 sec) 
Heartbeat CPU 0 instructions: 20000001 cycles: 7119941 heartbeat IPC: 2.69628 cumulative IPC: 2.80901 (Simulation time: 0 hr 5 min 39 sec) 
Heartbeat CPU 0 instructions: 30000001 cycles: 10483717 heartbeat IPC: 2.97285 cumulative IPC: 2.86158 (Simulation time: 0 hr 8 min 41 sec) 
Heartbeat CPU 0 instructions: 40000003 cycles: 14354128 heartbeat IPC: 2.58371 cumulative IPC: 2.78665 (Simulation time: 0 hr 11 min 49 sec) 
Heartbeat CPU 0 instructions: 50000003 cycles: 17652214 heartbeat IPC: 3.03206 cumulative IPC: 2.83251 (Simulation time: 0 hr 14 min 31 sec) 

Warmup complete CPU 0 instructions: 50000003 cycles: 17652214 (Simulation time: 0 hr 14 min 31 sec) 

Heartbeat CPU 0 instructions: 60000000 cycles: 26703875 heartbeat IPC: 1.10477 cumulative IPC: 1.10477 (Simulation time: 0 hr 17 min 20 sec) 
Heartbeat CPU 0 instructions: 70000000 cycles: 33088249 heartbeat IPC: 1.56632 cumulative IPC: 1.29567 (Simulation time: 0 hr 19 min 56 sec) 
Heartbeat CPU 0 instructions: 80000002 cycles: 42434092 heartbeat IPC: 1.06999 cumulative IPC: 1.21056 (Simulation time: 0 hr 22 min 50 sec) 
Heartbeat CPU 0 instructions: 90000000 cycles: 48698585 heartbeat IPC: 1.5963 cumulative IPC: 1.2884 (Simulation time: 0 hr 24 min 55 sec) 
Heartbeat CPU 0 instructions: 100000002 cycles: 57543739 heartbeat IPC: 1.13056 cumulative IPC: 1.2534 (Simulation time: 0 hr 26 min 35 sec) 
Finished CPU 0 instructions: 50000003 cycles: 39891526 cumulative IPC: 1.2534 (Simulation time: 0 hr 26 min 35 sec) 

ChampSim completed all CPUs

Region of Interest Statistics

CPU 0 cumulative IPC: 1.2534 instructions: 50000003 cycles: 39891526
L1D TOTAL     ACCESS:   21221768  HIT:   20385318  MISS:     836450
L1D LOAD      ACCESS:    8812415  HIT:    8417646  MISS:     394769
L1D RFO       ACCESS:    4040125  HIT:    3981064  MISS:      59061
L1D PREFETCH  ACCESS:    8369228  HIT:    7986608  MISS:     382620
L1D WRITEBACK ACCESS:          0  HIT:          0  MISS:          0
L1D PREFETCH  REQUESTED:    8857731  ISSUED:    8549435  USEFUL:     129615  USELESS:     252979
L1D AVERAGE MISS LATENCY: 48.0313 cycles
L1I TOTAL     ACCESS:   13135671  HIT:   12328456  MISS:     807215
L1I LOAD      ACCESS:    8943980  HIT:    8930857  MISS:      13123
L1I RFO       ACCESS:          0  HIT:          0  MISS:          0
L1I PREFETCH  ACCESS:    4191691  HIT:    3397599  MISS:     794092
L1I WRITEBACK ACCESS:          0  HIT:          0  MISS:          0
L1I PREFETCH  REQUESTED:    4285093  ISSUED:    4266379  USEFUL:     425627  USELESS:     368343
L1I AVERAGE MISS LATENCY: 18.3128 cycles
L2C TOTAL     ACCESS:    2584227  HIT:    2278565  MISS:     305662
L2C LOAD      ACCESS:     386497  HIT:     271752  MISS:     114745
L2C RFO       ACCESS:      58307  HIT:      21337  MISS:      36970
L2C PREFETCH  ACCESS:    1949831  HIT:    1796145  MISS:     153686
L2C WRITEBACK ACCESS:     189592  HIT:     189331  MISS:        261
L2C PREFETCH  REQUESTED:    1947598  ISSUED:    1940883  USEFUL:      14035  USELESS:     138530
L2C AVERAGE MISS LATENCY: 105.539 cycles
LLC TOTAL     ACCESS:     806588  HIT:     606046  MISS:     200542
LLC LOAD      ACCESS:     114433  HIT:      71274  MISS:      43159
LLC RFO       ACCESS:      36970  HIT:       8735  MISS:      28235
LLC PREFETCH  ACCESS:     548586  HIT:     420228  MISS:     128358
LLC WRITEBACK ACCESS:     106599  HIT:     105809  MISS:        790
LLC PREFETCH  REQUESTED:          0  ISSUED:          0  USEFUL:      28643  USELESS:     101968
LLC AVERAGE MISS LATENCY: 188.074 cycles
Major fault: 0 Minor fault: 3439
CPU 0 L1D next line prefetcher final stats

DRAM Statistics
 CHANNEL 0
 RQ ROW_BUFFER_HIT:      47339  ROW_BUFFER_MISS:     152402
 DBUS_CONGESTED:     115845
 WQ ROW_BUFFER_HIT:      15798  ROW_BUFFER_MISS:      64390  FULL:          0

 AVG_CONGESTED_CYCLE: 5

CPU 0 Branch Prediction Accuracy: 97.9037% MPKI: 3.63418 Average ROB Occupancy at Mispredict: 87.0634

Branch types
NOT_BRANCH: 41331383 82.6628%
BRANCH_DIRECT_JUMP: 455615 0.91123%
BRANCH_INDIRECT: 20390 0.04078%
BRANCH_CONDITIONAL: 6745374 13.4907%
BRANCH_DIRECT_CALL: 494532 0.989064%
BRANCH_INDIRECT_CALL: 228815 0.45763%
BRANCH_RETURN: 723560 1.44712%
BRANCH_OTHER: 0 0%

