Initialize SIGNATURE TABLE
ST_SET: 1
ST_WAY: 256
ST_TAG_BIT: 16
ST_TAG_MASK: ffff

Initialize PATTERN TABLE
PT_SET: 512
PT_WAY: 4
SIG_DELTA_BIT: 7
C_SIG_BIT: 4
C_DELTA_BIT: 4

Initialize PREFETCH FILTER
FILTER_SET: 1024

*** ChampSim Multicore Out-of-Order Simulator ***

Warmup Instructions: 50000000
Simulation Instructions: 50000000
Number of CPUs: 1
LLC sets: 2048
LLC ways: 16
Off-chip DRAM Size: 4096 MB Channels: 1 Width: 64-bit Data Rate: 3200 MT/s

CPU 0 runs /home/ykhodke/ChampSim/dpc3_traces/client_003.champsimtrace.xz
L1I D-JOLT instruction prefetcher has been constructed!
CPU 0 L1D next line prefetcher
Heartbeat CPU 0 instructions: 10000000 cycles: 3478392 heartbeat IPC: 2.87489 cumulative IPC: 2.87489 (Simulation time: 0 hr 3 min 22 sec) 
Heartbeat CPU 0 instructions: 20000002 cycles: 6932689 heartbeat IPC: 2.89495 cumulative IPC: 2.88488 (Simulation time: 0 hr 6 min 39 sec) 
Heartbeat CPU 0 instructions: 30000003 cycles: 10493545 heartbeat IPC: 2.80831 cumulative IPC: 2.8589 (Simulation time: 0 hr 10 min 19 sec) 
Heartbeat CPU 0 instructions: 40000001 cycles: 14109987 heartbeat IPC: 2.76515 cumulative IPC: 2.83487 (Simulation time: 0 hr 13 min 59 sec) 
Heartbeat CPU 0 instructions: 50000003 cycles: 17655062 heartbeat IPC: 2.82082 cumulative IPC: 2.83205 (Simulation time: 0 hr 18 min 5 sec) 

Warmup complete CPU 0 instructions: 50000003 cycles: 17655062 (Simulation time: 0 hr 18 min 5 sec) 

Heartbeat CPU 0 instructions: 60000002 cycles: 24019499 heartbeat IPC: 1.57123 cumulative IPC: 1.57123 (Simulation time: 0 hr 21 min 43 sec) 
Heartbeat CPU 0 instructions: 70000001 cycles: 30097307 heartbeat IPC: 1.64533 cumulative IPC: 1.60743 (Simulation time: 0 hr 25 min 19 sec) 
Heartbeat CPU 0 instructions: 80000001 cycles: 37133944 heartbeat IPC: 1.42113 cumulative IPC: 1.54013 (Simulation time: 0 hr 27 min 30 sec) 
Heartbeat CPU 0 instructions: 90000000 cycles: 46029641 heartbeat IPC: 1.12414 cumulative IPC: 1.40971 (Simulation time: 0 hr 28 min 43 sec) 
Heartbeat CPU 0 instructions: 100000003 cycles: 56945788 heartbeat IPC: 0.916074 cumulative IPC: 1.27256 (Simulation time: 0 hr 29 min 38 sec) 
Finished CPU 0 instructions: 50000000 cycles: 39290726 cumulative IPC: 1.27256 (Simulation time: 0 hr 29 min 38 sec) 

ChampSim completed all CPUs

Region of Interest Statistics

CPU 0 cumulative IPC: 1.27256 instructions: 50000000 cycles: 39290726
L1D TOTAL     ACCESS:   17652575  HIT:   17156624  MISS:     495951
L1D LOAD      ACCESS:    6039280  HIT:    5914934  MISS:     124346
L1D RFO       ACCESS:    5948196  HIT:    5713750  MISS:     234446
L1D PREFETCH  ACCESS:    5665099  HIT:    5527940  MISS:     137159
L1D WRITEBACK ACCESS:          0  HIT:          0  MISS:          0
L1D PREFETCH  REQUESTED:    6080526  ISSUED:    5939743  USEFUL:      69287  USELESS:      67919
L1D AVERAGE MISS LATENCY: 123.162 cycles
L1I TOTAL     ACCESS:   14499863  HIT:   13076966  MISS:    1422897
L1I LOAD      ACCESS:    9475490  HIT:    9376059  MISS:      99431
L1I RFO       ACCESS:          0  HIT:          0  MISS:          0
L1I PREFETCH  ACCESS:    5024373  HIT:    3700907  MISS:    1323466
L1I WRITEBACK ACCESS:          0  HIT:          0  MISS:          0
L1I PREFETCH  REQUESTED:    5239977  ISSUED:    5163385  USEFUL:     641734  USELESS:     681814
L1I AVERAGE MISS LATENCY: 17.3534 cycles
L2C TOTAL     ACCESS:    2785169  HIT:    2383928  MISS:     401241
L2C LOAD      ACCESS:     175467  HIT:     123225  MISS:      52242
L2C RFO       ACCESS:     232338  HIT:      25100  MISS:     207238
L2C PREFETCH  ACCESS:    2108058  HIT:    1967398  MISS:     140660
L2C WRITEBACK ACCESS:     269306  HIT:     268205  MISS:       1101
L2C PREFETCH  REQUESTED:    1391160  ISSUED:    1391041  USEFUL:      15573  USELESS:     124759
L2C AVERAGE MISS LATENCY: 163.461 cycles
LLC TOTAL     ACCESS:     983383  HIT:     697494  MISS:     285889
LLC LOAD      ACCESS:      52181  HIT:      36437  MISS:      15744
LLC RFO       ACCESS:     207222  HIT:      34855  MISS:     172367
LLC PREFETCH  ACCESS:     498986  HIT:     401603  MISS:      97383
LLC WRITEBACK ACCESS:     224994  HIT:     224599  MISS:        395
LLC PREFETCH  REQUESTED:          0  ISSUED:          0  USEFUL:      12314  USELESS:      84448
LLC AVERAGE MISS LATENCY: 230.026 cycles
Major fault: 0 Minor fault: 5045
CPU 0 L1D next line prefetcher final stats

DRAM Statistics
 CHANNEL 0
 RQ ROW_BUFFER_HIT:      98867  ROW_BUFFER_MISS:     186619
 DBUS_CONGESTED:     256205
 WQ ROW_BUFFER_HIT:      58129  ROW_BUFFER_MISS:     120661  FULL:          0

 AVG_CONGESTED_CYCLE: 6

CPU 0 Branch Prediction Accuracy: 98.6631% MPKI: 2.66884 Average ROB Occupancy at Mispredict: 77.0969

Branch types
NOT_BRANCH: 40018773 80.0375%
BRANCH_DIRECT_JUMP: 370861 0.741722%
BRANCH_INDIRECT: 83252 0.166504%
BRANCH_CONDITIONAL: 7877436 15.7549%
BRANCH_DIRECT_CALL: 722315 1.44463%
BRANCH_INDIRECT_CALL: 101901 0.203802%
BRANCH_RETURN: 825355 1.65071%
BRANCH_OTHER: 0 0%

