Initialize SIGNATURE TABLE
ST_SET: 1
ST_WAY: 256
ST_TAG_BIT: 16
ST_TAG_MASK: ffff

Initialize PATTERN TABLE
PT_SET: 512
PT_WAY: 4
SIG_DELTA_BIT: 7
C_SIG_BIT: 4
C_DELTA_BIT: 4

Initialize PREFETCH FILTER
FILTER_SET: 1024

*** ChampSim Multicore Out-of-Order Simulator ***

Warmup Instructions: 50000000
Simulation Instructions: 50000000
Number of CPUs: 1
LLC sets: 2048
LLC ways: 16
Off-chip DRAM Size: 4096 MB Channels: 1 Width: 64-bit Data Rate: 3200 MT/s

CPU 0 runs /home/ykhodke/ChampSim/dpc3_traces/client_003.champsimtrace.xz
LHT KB: 126.25
SCC KB: 1.56
Total KB: 127.81
CPU 0 L1D next line prefetcher
Heartbeat CPU 0 instructions: 10000000 cycles: 3478548 heartbeat IPC: 2.87476 cumulative IPC: 2.87476 (Simulation time: 0 hr 2 min 54 sec) 
Heartbeat CPU 0 instructions: 20000002 cycles: 6933008 heartbeat IPC: 2.89481 cumulative IPC: 2.88475 (Simulation time: 0 hr 5 min 45 sec) 
Heartbeat CPU 0 instructions: 30000003 cycles: 10494047 heartbeat IPC: 2.80817 cumulative IPC: 2.85876 (Simulation time: 0 hr 8 min 30 sec) 
Heartbeat CPU 0 instructions: 40000001 cycles: 14110693 heartbeat IPC: 2.76499 cumulative IPC: 2.83473 (Simulation time: 0 hr 11 min 31 sec) 
Heartbeat CPU 0 instructions: 50000003 cycles: 17655886 heartbeat IPC: 2.82072 cumulative IPC: 2.83192 (Simulation time: 0 hr 14 min 35 sec) 

Warmup complete CPU 0 instructions: 50000003 cycles: 17655886 (Simulation time: 0 hr 14 min 35 sec) 

Heartbeat CPU 0 instructions: 60000002 cycles: 23875174 heartbeat IPC: 1.6079 cumulative IPC: 1.6079 (Simulation time: 0 hr 17 min 14 sec) 
Heartbeat CPU 0 instructions: 70000001 cycles: 29942300 heartbeat IPC: 1.64823 cumulative IPC: 1.62781 (Simulation time: 0 hr 19 min 52 sec) 
Heartbeat CPU 0 instructions: 80000001 cycles: 36742556 heartbeat IPC: 1.47053 cumulative IPC: 1.57178 (Simulation time: 0 hr 22 min 28 sec) 
Heartbeat CPU 0 instructions: 90000000 cycles: 45636580 heartbeat IPC: 1.12435 cumulative IPC: 1.42956 (Simulation time: 0 hr 24 min 25 sec) 
Heartbeat CPU 0 instructions: 100000003 cycles: 56500709 heartbeat IPC: 0.920461 cumulative IPC: 1.28717 (Simulation time: 0 hr 26 min 30 sec) 
Finished CPU 0 instructions: 50000000 cycles: 38844823 cumulative IPC: 1.28717 (Simulation time: 0 hr 26 min 30 sec) 

ChampSim completed all CPUs

Region of Interest Statistics

CPU 0 cumulative IPC: 1.28717 instructions: 50000000 cycles: 38844823
L1D TOTAL     ACCESS:   17652052  HIT:   17156053  MISS:     495999
L1D LOAD      ACCESS:    6044236  HIT:    5918720  MISS:     125516
L1D RFO       ACCESS:    5947726  HIT:    5713268  MISS:     234458
L1D PREFETCH  ACCESS:    5660090  HIT:    5524065  MISS:     136025
L1D WRITEBACK ACCESS:          0  HIT:          0  MISS:          0
L1D PREFETCH  REQUESTED:    6085793  ISSUED:    5944703  USEFUL:      68123  USELESS:      67951
L1D AVERAGE MISS LATENCY: 123.614 cycles
L1I TOTAL     ACCESS:   19966118  HIT:   18983046  MISS:     983072
L1I LOAD      ACCESS:    9443341  HIT:    9311075  MISS:     132266
L1I RFO       ACCESS:          0  HIT:          0  MISS:          0
L1I PREFETCH  ACCESS:   10522777  HIT:    9671971  MISS:     850806
L1I WRITEBACK ACCESS:          0  HIT:          0  MISS:          0
L1I PREFETCH  REQUESTED:   11931912  ISSUED:   11931906  USEFUL:     446278  USELESS:     404576
L1I AVERAGE MISS LATENCY: 18.5375 cycles
L2C TOTAL     ACCESS:    2133084  HIT:    1722073  MISS:     411011
L2C LOAD      ACCESS:     117723  HIT:      81331  MISS:      36392
L2C RFO       ACCESS:     232364  HIT:      25135  MISS:     207229
L2C PREFETCH  ACCESS:    1513698  HIT:    1347679  MISS:     166019
L2C WRITEBACK ACCESS:     269299  HIT:     267928  MISS:       1371
L2C PREFETCH  REQUESTED:    1066831  ISSUED:    1066564  USEFUL:       9840  USELESS:     156224
L2C AVERAGE MISS LATENCY: 165.935 cycles
LLC TOTAL     ACCESS:     962885  HIT:     676383  MISS:     286502
LLC LOAD      ACCESS:      36294  HIT:      25739  MISS:      10555
LLC RFO       ACCESS:     207224  HIT:      35143  MISS:     172081
LLC PREFETCH  ACCESS:     494241  HIT:     390726  MISS:     103515
LLC WRITEBACK ACCESS:     225126  HIT:     224775  MISS:        351
LLC PREFETCH  REQUESTED:          0  ISSUED:          0  USEFUL:       7857  USELESS:      96161
LLC AVERAGE MISS LATENCY: 235.2 cycles
Major fault: 0 Minor fault: 5088
CPU 0 L1D next line prefetcher final stats

DRAM Statistics
 CHANNEL 0
 RQ ROW_BUFFER_HIT:     101378  ROW_BUFFER_MISS:     184767
 DBUS_CONGESTED:     260751
 WQ ROW_BUFFER_HIT:      57779  ROW_BUFFER_MISS:     121052  FULL:          0

 AVG_CONGESTED_CYCLE: 6

CPU 0 Branch Prediction Accuracy: 98.6631% MPKI: 2.66884 Average ROB Occupancy at Mispredict: 78.3966

Branch types
NOT_BRANCH: 40018780 80.0376%
BRANCH_DIRECT_JUMP: 370861 0.741722%
BRANCH_INDIRECT: 83253 0.166506%
BRANCH_CONDITIONAL: 7877436 15.7549%
BRANCH_DIRECT_CALL: 722316 1.44463%
BRANCH_INDIRECT_CALL: 101901 0.203802%
BRANCH_RETURN: 825355 1.65071%
BRANCH_OTHER: 0 0%

