Initialize SIGNATURE TABLE
ST_SET: 1
ST_WAY: 256
ST_TAG_BIT: 16
ST_TAG_MASK: ffff

Initialize PATTERN TABLE
PT_SET: 512
PT_WAY: 4
SIG_DELTA_BIT: 7
C_SIG_BIT: 4
C_DELTA_BIT: 4

Initialize PREFETCH FILTER
FILTER_SET: 1024

*** ChampSim Multicore Out-of-Order Simulator ***

Warmup Instructions: 50000000
Simulation Instructions: 50000000
Number of CPUs: 1
LLC sets: 2048
LLC ways: 16
Off-chip DRAM Size: 4096 MB Channels: 1 Width: 64-bit Data Rate: 3200 MT/s

CPU 0 runs /home/ykhodke/ChampSim/dpc3_traces/client_004.champsimtrace.xz
L1I D-JOLT instruction prefetcher has been constructed!
CPU 0 L1D next line prefetcher
Heartbeat CPU 0 instructions: 10000000 cycles: 3592483 heartbeat IPC: 2.78359 cumulative IPC: 2.78359 (Simulation time: 0 hr 3 min 13 sec) 
Heartbeat CPU 0 instructions: 20000003 cycles: 7056896 heartbeat IPC: 2.88649 cumulative IPC: 2.83411 (Simulation time: 0 hr 5 min 46 sec) 
Heartbeat CPU 0 instructions: 30000000 cycles: 10647517 heartbeat IPC: 2.78503 cumulative IPC: 2.81756 (Simulation time: 0 hr 8 min 8 sec) 
Heartbeat CPU 0 instructions: 40000003 cycles: 14328226 heartbeat IPC: 2.71687 cumulative IPC: 2.79169 (Simulation time: 0 hr 10 min 46 sec) 
Heartbeat CPU 0 instructions: 50000001 cycles: 17847013 heartbeat IPC: 2.84189 cumulative IPC: 2.80159 (Simulation time: 0 hr 13 min 42 sec) 

Warmup complete CPU 0 instructions: 50000001 cycles: 17847013 (Simulation time: 0 hr 13 min 42 sec) 

Heartbeat CPU 0 instructions: 60000002 cycles: 25860262 heartbeat IPC: 1.24793 cumulative IPC: 1.24793 (Simulation time: 0 hr 16 min 8 sec) 
Heartbeat CPU 0 instructions: 70000001 cycles: 33895107 heartbeat IPC: 1.24458 cumulative IPC: 1.24625 (Simulation time: 0 hr 18 min 40 sec) 
Heartbeat CPU 0 instructions: 80000002 cycles: 42934120 heartbeat IPC: 1.10632 cumulative IPC: 1.19583 (Simulation time: 0 hr 21 min 14 sec) 
Heartbeat CPU 0 instructions: 90000000 cycles: 51265685 heartbeat IPC: 1.20025 cumulative IPC: 1.19694 (Simulation time: 0 hr 23 min 52 sec) 
Heartbeat CPU 0 instructions: 100000001 cycles: 59441625 heartbeat IPC: 1.2231 cumulative IPC: 1.20208 (Simulation time: 0 hr 26 min 4 sec) 
Finished CPU 0 instructions: 50000000 cycles: 41594612 cumulative IPC: 1.20208 (Simulation time: 0 hr 26 min 4 sec) 

ChampSim completed all CPUs

Region of Interest Statistics

CPU 0 cumulative IPC: 1.20208 instructions: 50000000 cycles: 41594612
L1D TOTAL     ACCESS:   21968471  HIT:   21079524  MISS:     888947
L1D LOAD      ACCESS:    8724881  HIT:    8329155  MISS:     395726
L1D RFO       ACCESS:    4811922  HIT:    4690547  MISS:     121375
L1D PREFETCH  ACCESS:    8431668  HIT:    8059822  MISS:     371846
L1D WRITEBACK ACCESS:          0  HIT:          0  MISS:          0
L1D PREFETCH  REQUESTED:    8763904  ISSUED:    8604212  USEFUL:     133365  USELESS:     238489
L1D AVERAGE MISS LATENCY: 29.451 cycles
L1I TOTAL     ACCESS:   13182178  HIT:   12271288  MISS:     910890
L1I LOAD      ACCESS:    9393874  HIT:    9232976  MISS:     160898
L1I RFO       ACCESS:          0  HIT:          0  MISS:          0
L1I PREFETCH  ACCESS:    3788304  HIT:    3038312  MISS:     749992
L1I WRITEBACK ACCESS:          0  HIT:          0  MISS:          0
L1I PREFETCH  REQUESTED:    4151680  ISSUED:    4104805  USEFUL:     464701  USELESS:     285335
L1I AVERAGE MISS LATENCY: 22.6333 cycles
L2C TOTAL     ACCESS:    2719821  HIT:    2428698  MISS:     291123
L2C LOAD      ACCESS:     504823  HIT:     415134  MISS:      89689
L2C RFO       ACCESS:     117376  HIT:      45404  MISS:      71972
L2C PREFETCH  ACCESS:    1875584  HIT:    1746747  MISS:     128837
L2C WRITEBACK ACCESS:     222038  HIT:     221413  MISS:        625
L2C PREFETCH  REQUESTED:    1533060  ISSUED:    1532456  USEFUL:      28356  USELESS:     100045
L2C AVERAGE MISS LATENCY: 75.9186 cycles
LLC TOTAL     ACCESS:     675680  HIT:     546135  MISS:     129545
LLC LOAD      ACCESS:      89674  HIT:      60388  MISS:      29286
LLC RFO       ACCESS:      71972  HIT:      41397  MISS:      30575
LLC PREFETCH  ACCESS:     413544  HIT:     344093  MISS:      69451
LLC WRITEBACK ACCESS:     100490  HIT:     100257  MISS:        233
LLC PREFETCH  REQUESTED:          0  ISSUED:          0  USEFUL:      26111  USELESS:      46029
LLC AVERAGE MISS LATENCY: 166.772 cycles
Major fault: 0 Minor fault: 3982
CPU 0 L1D next line prefetcher final stats

DRAM Statistics
 CHANNEL 0
 RQ ROW_BUFFER_HIT:      30872  ROW_BUFFER_MISS:      98431
 DBUS_CONGESTED:      55455
 WQ ROW_BUFFER_HIT:       9801  ROW_BUFFER_MISS:      33531  FULL:          0

 AVG_CONGESTED_CYCLE: 6

CPU 0 Branch Prediction Accuracy: 94.1242% MPKI: 11.6089 Average ROB Occupancy at Mispredict: 55.2023

Branch types
NOT_BRANCH: 40121075 80.2421%
BRANCH_DIRECT_JUMP: 644555 1.28911%
BRANCH_INDIRECT: 201946 0.403892%
BRANCH_CONDITIONAL: 7003556 14.0071%
BRANCH_DIRECT_CALL: 564821 1.12964%
BRANCH_INDIRECT_CALL: 445012 0.890024%
BRANCH_RETURN: 1018716 2.03743%
BRANCH_OTHER: 0 0%

