Initialize SIGNATURE TABLE
ST_SET: 1
ST_WAY: 256
ST_TAG_BIT: 16
ST_TAG_MASK: ffff

Initialize PATTERN TABLE
PT_SET: 512
PT_WAY: 4
SIG_DELTA_BIT: 7
C_SIG_BIT: 4
C_DELTA_BIT: 4

Initialize PREFETCH FILTER
FILTER_SET: 1024

*** ChampSim Multicore Out-of-Order Simulator ***

Warmup Instructions: 50000000
Simulation Instructions: 50000000
Number of CPUs: 1
LLC sets: 2048
LLC ways: 16
Off-chip DRAM Size: 4096 MB Channels: 1 Width: 64-bit Data Rate: 3200 MT/s

CPU 0 runs /home/ykhodke/ChampSim/dpc3_traces/client_008.champsimtrace.xz
LHT KB: 63.12
SCC KB: 1.56
Total KB: 64.69
CPU 0 L1D next line prefetcher
Heartbeat CPU 0 instructions: 10000001 cycles: 3752920 heartbeat IPC: 2.66459 cumulative IPC: 2.66459 (Simulation time: 0 hr 3 min 17 sec) 
Heartbeat CPU 0 instructions: 20000001 cycles: 7527481 heartbeat IPC: 2.64931 cumulative IPC: 2.65693 (Simulation time: 0 hr 6 min 58 sec) 
Heartbeat CPU 0 instructions: 30000000 cycles: 11254085 heartbeat IPC: 2.68341 cumulative IPC: 2.6657 (Simulation time: 0 hr 9 min 57 sec) 
Heartbeat CPU 0 instructions: 40000002 cycles: 15047137 heartbeat IPC: 2.6364 cumulative IPC: 2.65831 (Simulation time: 0 hr 12 min 59 sec) 
Heartbeat CPU 0 instructions: 50000003 cycles: 18837334 heartbeat IPC: 2.63839 cumulative IPC: 2.6543 (Simulation time: 0 hr 15 min 59 sec) 

Warmup complete CPU 0 instructions: 50000003 cycles: 18837334 (Simulation time: 0 hr 15 min 59 sec) 

Heartbeat CPU 0 instructions: 60000000 cycles: 26994385 heartbeat IPC: 1.22593 cumulative IPC: 1.22593 (Simulation time: 0 hr 19 min 12 sec) 
Heartbeat CPU 0 instructions: 70000000 cycles: 34912101 heartbeat IPC: 1.26299 cumulative IPC: 1.24419 (Simulation time: 0 hr 22 min 51 sec) 
Heartbeat CPU 0 instructions: 80000000 cycles: 43904569 heartbeat IPC: 1.11204 cumulative IPC: 1.19678 (Simulation time: 0 hr 25 min 38 sec) 
Heartbeat CPU 0 instructions: 90000001 cycles: 51288008 heartbeat IPC: 1.35438 cumulative IPC: 1.23264 (Simulation time: 0 hr 27 min 38 sec) 
Heartbeat CPU 0 instructions: 100000001 cycles: 59332465 heartbeat IPC: 1.24309 cumulative IPC: 1.23472 (Simulation time: 0 hr 29 min 3 sec) 
Finished CPU 0 instructions: 50000002 cycles: 40495132 cumulative IPC: 1.23472 (Simulation time: 0 hr 29 min 3 sec) 

ChampSim completed all CPUs

Region of Interest Statistics

CPU 0 cumulative IPC: 1.23472 instructions: 50000002 cycles: 40495132
L1D TOTAL     ACCESS:   20478322  HIT:   18849737  MISS:    1628585
L1D LOAD      ACCESS:    8061482  HIT:    7261876  MISS:     799606
L1D RFO       ACCESS:    4813222  HIT:    4703670  MISS:     109552
L1D PREFETCH  ACCESS:    7603618  HIT:    6884191  MISS:     719427
L1D WRITEBACK ACCESS:          0  HIT:          0  MISS:          0
L1D PREFETCH  REQUESTED:    8131137  ISSUED:    7962847  USEFUL:     199575  USELESS:     519857
L1D AVERAGE MISS LATENCY: 32.9842 cycles
L1I TOTAL     ACCESS:   19739990  HIT:   18429318  MISS:    1310672
L1I LOAD      ACCESS:    9721513  HIT:    9583330  MISS:     138183
L1I RFO       ACCESS:          0  HIT:          0  MISS:          0
L1I PREFETCH  ACCESS:   10018477  HIT:    8845988  MISS:    1172489
L1I WRITEBACK ACCESS:          0  HIT:          0  MISS:          0
L1I PREFETCH  REQUESTED:   11667410  ISSUED:   11667410  USEFUL:     690002  USELESS:     482558
L1I AVERAGE MISS LATENCY: 16.4323 cycles
L2C TOTAL     ACCESS:    4101974  HIT:    3640322  MISS:     461652
L2C LOAD      ACCESS:     775368  HIT:     615096  MISS:     160272
L2C RFO       ACCESS:     104327  HIT:      18312  MISS:      86015
L2C PREFETCH  ACCESS:    3040291  HIT:    2825393  MISS:     214898
L2C WRITEBACK ACCESS:     181988  HIT:     181521  MISS:        467
L2C PREFETCH  REQUESTED:    2834941  ISSUED:    2828817  USEFUL:      18300  USELESS:     198714
L2C AVERAGE MISS LATENCY: 79.009 cycles
LLC TOTAL     ACCESS:    1341872  HIT:    1155226  MISS:     186646
LLC LOAD      ACCESS:     160182  HIT:     139978  MISS:      20204
LLC RFO       ACCESS:      86013  HIT:      15038  MISS:      70975
LLC PREFETCH  ACCESS:     960001  HIT:     864869  MISS:      95132
LLC WRITEBACK ACCESS:     135676  HIT:     135341  MISS:        335
LLC PREFETCH  REQUESTED:          0  ISSUED:          0  USEFUL:      21887  USELESS:      82477
LLC AVERAGE MISS LATENCY: 169.871 cycles
Major fault: 0 Minor fault: 5321
CPU 0 L1D next line prefetcher final stats

DRAM Statistics
 CHANNEL 0
 RQ ROW_BUFFER_HIT:      54635  ROW_BUFFER_MISS:     131664
 DBUS_CONGESTED:     103221
 WQ ROW_BUFFER_HIT:      24112  ROW_BUFFER_MISS:      66482  FULL:          0

 AVG_CONGESTED_CYCLE: 6

CPU 0 Branch Prediction Accuracy: 98.6482% MPKI: 3.1551 Average ROB Occupancy at Mispredict: 97.4563

Branch types
NOT_BRANCH: 38329598 76.6592%
BRANCH_DIRECT_JUMP: 510116 1.02023%
BRANCH_INDIRECT: 225730 0.45146%
BRANCH_CONDITIONAL: 8366762 16.7335%
BRANCH_DIRECT_CALL: 600748 1.2015%
BRANCH_INDIRECT_CALL: 682990 1.36598%
BRANCH_RETURN: 1283974 2.56795%
BRANCH_OTHER: 0 0%

