Initialize SIGNATURE TABLE
ST_SET: 1
ST_WAY: 256
ST_TAG_BIT: 16
ST_TAG_MASK: ffff

Initialize PATTERN TABLE
PT_SET: 512
PT_WAY: 4
SIG_DELTA_BIT: 7
C_SIG_BIT: 4
C_DELTA_BIT: 4

Initialize PREFETCH FILTER
FILTER_SET: 1024

*** ChampSim Multicore Out-of-Order Simulator ***

Warmup Instructions: 50000000
Simulation Instructions: 50000000
Number of CPUs: 1
LLC sets: 2048
LLC ways: 16
Off-chip DRAM Size: 4096 MB Channels: 1 Width: 64-bit Data Rate: 3200 MT/s

CPU 0 runs /home/ykhodke/ChampSim/dpc3_traces/client_005.champsimtrace.xz
L1I D-JOLT instruction prefetcher has been constructed!
CPU 0 L1D next line prefetcher
Heartbeat CPU 0 instructions: 10000001 cycles: 3291895 heartbeat IPC: 3.03776 cumulative IPC: 3.03776 (Simulation time: 0 hr 2 min 55 sec) 
Heartbeat CPU 0 instructions: 20000002 cycles: 6698456 heartbeat IPC: 2.93551 cumulative IPC: 2.98576 (Simulation time: 0 hr 5 min 59 sec) 
Heartbeat CPU 0 instructions: 30000001 cycles: 10391716 heartbeat IPC: 2.70763 cumulative IPC: 2.88691 (Simulation time: 0 hr 9 min 26 sec) 
Heartbeat CPU 0 instructions: 40000000 cycles: 14069650 heartbeat IPC: 2.71892 cumulative IPC: 2.843 (Simulation time: 0 hr 12 min 51 sec) 
Heartbeat CPU 0 instructions: 50000001 cycles: 17343371 heartbeat IPC: 3.05463 cumulative IPC: 2.88295 (Simulation time: 0 hr 15 min 48 sec) 

Warmup complete CPU 0 instructions: 50000001 cycles: 17343371 (Simulation time: 0 hr 15 min 48 sec) 

Heartbeat CPU 0 instructions: 60000002 cycles: 25342485 heartbeat IPC: 1.25014 cumulative IPC: 1.25014 (Simulation time: 0 hr 18 min 42 sec) 
Heartbeat CPU 0 instructions: 70000003 cycles: 32767515 heartbeat IPC: 1.3468 cumulative IPC: 1.29667 (Simulation time: 0 hr 21 min 44 sec) 
Heartbeat CPU 0 instructions: 80000001 cycles: 39635281 heartbeat IPC: 1.45608 cumulative IPC: 1.34578 (Simulation time: 0 hr 24 min 55 sec) 
Heartbeat CPU 0 instructions: 90000002 cycles: 49190104 heartbeat IPC: 1.04659 cumulative IPC: 1.25602 (Simulation time: 0 hr 27 min 45 sec) 
Heartbeat CPU 0 instructions: 100000002 cycles: 57009025 heartbeat IPC: 1.27895 cumulative IPC: 1.26054 (Simulation time: 0 hr 29 min 14 sec) 
Finished CPU 0 instructions: 50000001 cycles: 39665654 cumulative IPC: 1.26054 (Simulation time: 0 hr 29 min 14 sec) 

ChampSim completed all CPUs

Region of Interest Statistics

CPU 0 cumulative IPC: 1.26054 instructions: 50000001 cycles: 39665654
L1D TOTAL     ACCESS:   19644865  HIT:   19109093  MISS:     535772
L1D LOAD      ACCESS:    6652513  HIT:    6480838  MISS:     171675
L1D RFO       ACCESS:    6791986  HIT:    6607323  MISS:     184663
L1D PREFETCH  ACCESS:    6200366  HIT:    6020932  MISS:     179434
L1D WRITEBACK ACCESS:          0  HIT:          0  MISS:          0
L1D PREFETCH  REQUESTED:    6676385  ISSUED:    6306692  USEFUL:      59364  USELESS:     119958
L1D AVERAGE MISS LATENCY: 94.6517 cycles
L1I TOTAL     ACCESS:   18045429  HIT:   15232191  MISS:    2813238
L1I LOAD      ACCESS:    9375412  HIT:    9215242  MISS:     160170
L1I RFO       ACCESS:          0  HIT:          0  MISS:          0
L1I PREFETCH  ACCESS:    8670017  HIT:    6016949  MISS:    2653068
L1I WRITEBACK ACCESS:          0  HIT:          0  MISS:          0
L1I PREFETCH  REQUESTED:    9394650  ISSUED:    8927962  USEFUL:    1054459  USELESS:    1598545
L1I AVERAGE MISS LATENCY: 16.4701 cycles
L2C TOTAL     ACCESS:    4765609  HIT:    4366981  MISS:     398628
L2C LOAD      ACCESS:     296047  HIT:     195039  MISS:     101008
L2C RFO       ACCESS:     180874  HIT:      31187  MISS:     149687
L2C PREFETCH  ACCESS:    4035622  HIT:    3889050  MISS:     146572
L2C WRITEBACK ACCESS:     253066  HIT:     251705  MISS:       1361
L2C PREFETCH  REQUESTED:    2267353  ISSUED:    2267173  USEFUL:      19972  USELESS:     125673
L2C AVERAGE MISS LATENCY: 124.531 cycles
LLC TOTAL     ACCESS:     959156  HIT:     660131  MISS:     299025
LLC LOAD      ACCESS:     100997  HIT:      53599  MISS:      47398
LLC RFO       ACCESS:     149686  HIT:      16212  MISS:     133474
LLC PREFETCH  ACCESS:     508288  HIT:     390983  MISS:     117305
LLC WRITEBACK ACCESS:     200185  HIT:     199337  MISS:        848
LLC PREFETCH  REQUESTED:          0  ISSUED:          0  USEFUL:      27243  USELESS:      88834
LLC AVERAGE MISS LATENCY: 166.613 cycles
Major fault: 0 Minor fault: 6090
CPU 0 L1D next line prefetcher final stats

DRAM Statistics
 CHANNEL 0
 RQ ROW_BUFFER_HIT:      94347  ROW_BUFFER_MISS:     203826
 DBUS_CONGESTED:     231438
 WQ ROW_BUFFER_HIT:      53650  ROW_BUFFER_MISS:     129068  FULL:          0

 AVG_CONGESTED_CYCLE: 6

CPU 0 Branch Prediction Accuracy: 97.8666% MPKI: 3.9013 Average ROB Occupancy at Mispredict: 86.6382

Branch types
NOT_BRANCH: 40856330 81.7127%
BRANCH_DIRECT_JUMP: 484667 0.969334%
BRANCH_INDIRECT: 85086 0.170172%
BRANCH_CONDITIONAL: 6230887 12.4618%
BRANCH_DIRECT_CALL: 1028917 2.05783%
BRANCH_INDIRECT_CALL: 141825 0.28365%
BRANCH_RETURN: 1171986 2.34397%
BRANCH_OTHER: 0 0%

