Initialize SIGNATURE TABLE
ST_SET: 1
ST_WAY: 256
ST_TAG_BIT: 16
ST_TAG_MASK: ffff

Initialize PATTERN TABLE
PT_SET: 512
PT_WAY: 4
SIG_DELTA_BIT: 7
C_SIG_BIT: 4
C_DELTA_BIT: 4

Initialize PREFETCH FILTER
FILTER_SET: 1024

*** ChampSim Multicore Out-of-Order Simulator ***

Warmup Instructions: 50000000
Simulation Instructions: 50000000
Number of CPUs: 1
LLC sets: 2048
LLC ways: 16
Off-chip DRAM Size: 4096 MB Channels: 1 Width: 64-bit Data Rate: 3200 MT/s

CPU 0 runs /home/ykhodke/ChampSim/dpc3_traces/client_002.champsimtrace.xz
L1I D-JOLT instruction prefetcher has been constructed!
CPU 0 L1D next line prefetcher
Heartbeat CPU 0 instructions: 10000000 cycles: 3404745 heartbeat IPC: 2.93708 cumulative IPC: 2.93708 (Simulation time: 0 hr 2 min 42 sec) 
Heartbeat CPU 0 instructions: 20000002 cycles: 6860156 heartbeat IPC: 2.89401 cumulative IPC: 2.91539 (Simulation time: 0 hr 5 min 22 sec) 
Heartbeat CPU 0 instructions: 30000001 cycles: 10292738 heartbeat IPC: 2.91326 cumulative IPC: 2.91468 (Simulation time: 0 hr 7 min 57 sec) 
Heartbeat CPU 0 instructions: 40000002 cycles: 13725364 heartbeat IPC: 2.91322 cumulative IPC: 2.91431 (Simulation time: 0 hr 10 min 30 sec) 
Heartbeat CPU 0 instructions: 50000002 cycles: 17165983 heartbeat IPC: 2.90645 cumulative IPC: 2.91274 (Simulation time: 0 hr 13 min 1 sec) 

Warmup complete CPU 0 instructions: 50000002 cycles: 17165983 (Simulation time: 0 hr 13 min 1 sec) 

Heartbeat CPU 0 instructions: 60000002 cycles: 23264874 heartbeat IPC: 1.63964 cumulative IPC: 1.63964 (Simulation time: 0 hr 15 min 25 sec) 
Heartbeat CPU 0 instructions: 70000001 cycles: 29428160 heartbeat IPC: 1.62251 cumulative IPC: 1.63103 (Simulation time: 0 hr 17 min 53 sec) 
Heartbeat CPU 0 instructions: 80000003 cycles: 35460747 heartbeat IPC: 1.65766 cumulative IPC: 1.63981 (Simulation time: 0 hr 20 min 24 sec) 
Heartbeat CPU 0 instructions: 90000000 cycles: 42127196 heartbeat IPC: 1.50005 cumulative IPC: 1.60249 (Simulation time: 0 hr 22 min 50 sec) 
Heartbeat CPU 0 instructions: 100000003 cycles: 48248485 heartbeat IPC: 1.63364 cumulative IPC: 1.60862 (Simulation time: 0 hr 25 min 11 sec) 
Finished CPU 0 instructions: 50000001 cycles: 31082502 cumulative IPC: 1.60862 (Simulation time: 0 hr 25 min 11 sec) 

ChampSim completed all CPUs

Region of Interest Statistics

CPU 0 cumulative IPC: 1.60862 instructions: 50000001 cycles: 31082502
L1D TOTAL     ACCESS:   19186650  HIT:   18847317  MISS:     339333
L1D LOAD      ACCESS:    6513012  HIT:    6396366  MISS:     116646
L1D RFO       ACCESS:    6422671  HIT:    6332831  MISS:      89840
L1D PREFETCH  ACCESS:    6250967  HIT:    6118120  MISS:     132847
L1D WRITEBACK ACCESS:          0  HIT:          0  MISS:          0
L1D PREFETCH  REQUESTED:    6523282  ISSUED:    6320816  USEFUL:      53952  USELESS:      79037
L1D AVERAGE MISS LATENCY: 49.1013 cycles
L1I TOTAL     ACCESS:   14536915  HIT:   13157149  MISS:    1379766
L1I LOAD      ACCESS:    9542632  HIT:    9409541  MISS:     133091
L1I RFO       ACCESS:          0  HIT:          0  MISS:          0
L1I PREFETCH  ACCESS:    4994283  HIT:    3747608  MISS:    1246675
L1I WRITEBACK ACCESS:          0  HIT:          0  MISS:          0
L1I PREFETCH  REQUESTED:    5162423  ISSUED:    5095288  USEFUL:     725368  USELESS:     521349
L1I AVERAGE MISS LATENCY: 16.8856 cycles
L2C TOTAL     ACCESS:    2445069  HIT:    2191507  MISS:     253562
L2C LOAD      ACCESS:     225432  HIT:     151995  MISS:      73437
L2C RFO       ACCESS:      88783  HIT:      22686  MISS:      66097
L2C PREFETCH  ACCESS:    2005346  HIT:    1891765  MISS:     113581
L2C WRITEBACK ACCESS:     125508  HIT:     125061  MISS:        447
L2C PREFETCH  REQUESTED:    1308442  ISSUED:    1308314  USEFUL:      22769  USELESS:      90459
L2C AVERAGE MISS LATENCY: 61.9522 cycles
LLC TOTAL     ACCESS:     633488  HIT:     562861  MISS:      70627
LLC LOAD      ACCESS:      73432  HIT:      66759  MISS:       6673
LLC RFO       ACCESS:      66091  HIT:      36415  MISS:      29676
LLC PREFETCH  ACCESS:     409423  HIT:     375397  MISS:      34026
LLC WRITEBACK ACCESS:      84542  HIT:      84290  MISS:        252
LLC PREFETCH  REQUESTED:          0  ISSUED:          0  USEFUL:       5839  USELESS:      28102
LLC AVERAGE MISS LATENCY: 174.681 cycles
Major fault: 0 Minor fault: 3094
CPU 0 L1D next line prefetcher final stats

DRAM Statistics
 CHANNEL 0
 RQ ROW_BUFFER_HIT:      22918  ROW_BUFFER_MISS:      47456
 DBUS_CONGESTED:      41553
 WQ ROW_BUFFER_HIT:       8616  ROW_BUFFER_MISS:      27897  FULL:          0

 AVG_CONGESTED_CYCLE: 6

CPU 0 Branch Prediction Accuracy: 99.2117% MPKI: 1.49752 Average ROB Occupancy at Mispredict: 109.226

Branch types
NOT_BRANCH: 40501616 81.0032%
BRANCH_DIRECT_JUMP: 517397 1.03479%
BRANCH_INDIRECT: 112348 0.224696%
BRANCH_CONDITIONAL: 6698737 13.3975%
BRANCH_DIRECT_CALL: 960974 1.92195%
BRANCH_INDIRECT_CALL: 123707 0.247414%
BRANCH_RETURN: 1084929 2.16986%
BRANCH_OTHER: 0 0%

