Initialize SIGNATURE TABLE
ST_SET: 1
ST_WAY: 256
ST_TAG_BIT: 16
ST_TAG_MASK: ffff

Initialize PATTERN TABLE
PT_SET: 512
PT_WAY: 4
SIG_DELTA_BIT: 7
C_SIG_BIT: 4
C_DELTA_BIT: 4

Initialize PREFETCH FILTER
FILTER_SET: 1024

*** ChampSim Multicore Out-of-Order Simulator ***

Warmup Instructions: 50000000
Simulation Instructions: 50000000
Number of CPUs: 1
LLC sets: 2048
LLC ways: 16
Off-chip DRAM Size: 4096 MB Channels: 1 Width: 64-bit Data Rate: 3200 MT/s

CPU 0 runs /home/ykhodke/ChampSim/dpc3_traces/client_006.champsimtrace.xz
L1I D-JOLT instruction prefetcher has been constructed!
CPU 0 L1D next line prefetcher
Heartbeat CPU 0 instructions: 10000003 cycles: 4267391 heartbeat IPC: 2.34335 cumulative IPC: 2.34335 (Simulation time: 0 hr 2 min 49 sec) 
Heartbeat CPU 0 instructions: 20000000 cycles: 8307574 heartbeat IPC: 2.47513 cumulative IPC: 2.40744 (Simulation time: 0 hr 5 min 34 sec) 
Heartbeat CPU 0 instructions: 30000003 cycles: 11371339 heartbeat IPC: 3.26396 cumulative IPC: 2.63821 (Simulation time: 0 hr 7 min 58 sec) 
Heartbeat CPU 0 instructions: 40000000 cycles: 14716724 heartbeat IPC: 2.98919 cumulative IPC: 2.718 (Simulation time: 0 hr 10 min 26 sec) 
Heartbeat CPU 0 instructions: 50000003 cycles: 18821614 heartbeat IPC: 2.43612 cumulative IPC: 2.65652 (Simulation time: 0 hr 13 min 1 sec) 

Warmup complete CPU 0 instructions: 50000003 cycles: 18821614 (Simulation time: 0 hr 13 min 1 sec) 

Heartbeat CPU 0 instructions: 60000001 cycles: 26665832 heartbeat IPC: 1.27482 cumulative IPC: 1.27482 (Simulation time: 0 hr 15 min 29 sec) 
Heartbeat CPU 0 instructions: 70000000 cycles: 36381737 heartbeat IPC: 1.02924 cumulative IPC: 1.13894 (Simulation time: 0 hr 17 min 59 sec) 
Heartbeat CPU 0 instructions: 80000002 cycles: 44686369 heartbeat IPC: 1.20415 cumulative IPC: 1.15988 (Simulation time: 0 hr 20 min 31 sec) 
Heartbeat CPU 0 instructions: 90000003 cycles: 52511115 heartbeat IPC: 1.278 cumulative IPC: 1.18731 (Simulation time: 0 hr 22 min 38 sec) 
Heartbeat CPU 0 instructions: 100000001 cycles: 60742260 heartbeat IPC: 1.2149 cumulative IPC: 1.19273 (Simulation time: 0 hr 25 min 17 sec) 
Finished CPU 0 instructions: 50000002 cycles: 41920647 cumulative IPC: 1.19273 (Simulation time: 0 hr 25 min 17 sec) 

ChampSim completed all CPUs

Region of Interest Statistics

CPU 0 cumulative IPC: 1.19273 instructions: 50000002 cycles: 41920647
L1D TOTAL     ACCESS:   16590391  HIT:   15863238  MISS:     727153
L1D LOAD      ACCESS:    6364765  HIT:    5957824  MISS:     406941
L1D RFO       ACCESS:    4332090  HIT:    4289480  MISS:      42610
L1D PREFETCH  ACCESS:    5893536  HIT:    5615934  MISS:     277602
L1D WRITEBACK ACCESS:          0  HIT:          0  MISS:          0
L1D PREFETCH  REQUESTED:    6406704  ISSUED:    6225739  USEFUL:     116600  USELESS:     160876
L1D AVERAGE MISS LATENCY: 82.5834 cycles
L1I TOTAL     ACCESS:   13369079  HIT:   12168920  MISS:    1200159
L1I LOAD      ACCESS:    8478551  HIT:    8467264  MISS:      11287
L1I RFO       ACCESS:          0  HIT:          0  MISS:          0
L1I PREFETCH  ACCESS:    4890528  HIT:    3701656  MISS:    1188872
L1I WRITEBACK ACCESS:          0  HIT:          0  MISS:          0
L1I PREFETCH  REQUESTED:    5127936  ISSUED:    5006976  USEFUL:     830221  USELESS:     358569
L1I AVERAGE MISS LATENCY: 21.8752 cycles
L2C TOTAL     ACCESS:    2728745  HIT:    2176795  MISS:     551950
L2C LOAD      ACCESS:     349631  HIT:     110428  MISS:     239203
L2C RFO       ACCESS:      42333  HIT:      12137  MISS:      30196
L2C PREFETCH  ACCESS:    2160818  HIT:    1878934  MISS:     281884
L2C WRITEBACK ACCESS:     175963  HIT:     175296  MISS:        667
L2C PREFETCH  REQUESTED:    2879273  ISSUED:    2849120  USEFUL:      11067  USELESS:     271869
L2C AVERAGE MISS LATENCY: 116.918 cycles
LLC TOTAL     ACCESS:    1451307  HIT:    1049123  MISS:     402184
LLC LOAD      ACCESS:     229887  HIT:     135051  MISS:      94836
LLC RFO       ACCESS:      30195  HIT:       5375  MISS:      24820
LLC PREFETCH  ACCESS:    1056515  HIT:     774631  MISS:     281884
LLC WRITEBACK ACCESS:     134710  HIT:     134066  MISS:        644
LLC PREFETCH  REQUESTED:          0  ISSUED:          0  USEFUL:      43361  USELESS:     242426
LLC AVERAGE MISS LATENCY: 200.779 cycles
Major fault: 0 Minor fault: 10537
CPU 0 L1D next line prefetcher final stats

DRAM Statistics
 CHANNEL 0
 RQ ROW_BUFFER_HIT:     102271  ROW_BUFFER_MISS:     299240
 DBUS_CONGESTED:     230990
 WQ ROW_BUFFER_HIT:      21941  ROW_BUFFER_MISS:      93623  FULL:          0

 AVG_CONGESTED_CYCLE: 5

CPU 0 Branch Prediction Accuracy: 98.1683% MPKI: 3.13642 Average ROB Occupancy at Mispredict: 87.938

Branch types
NOT_BRANCH: 41438064 82.8761%
BRANCH_DIRECT_JUMP: 413829 0.827658%
BRANCH_INDIRECT: 47058 0.094116%
BRANCH_CONDITIONAL: 6843835 13.6877%
BRANCH_DIRECT_CALL: 536885 1.07377%
BRANCH_INDIRECT_CALL: 90642 0.181284%
BRANCH_RETURN: 629329 1.25866%
BRANCH_OTHER: 0 0%

