Initialize SIGNATURE TABLE
ST_SET: 1
ST_WAY: 256
ST_TAG_BIT: 16
ST_TAG_MASK: ffff

Initialize PATTERN TABLE
PT_SET: 512
PT_WAY: 4
SIG_DELTA_BIT: 7
C_SIG_BIT: 4
C_DELTA_BIT: 4

Initialize PREFETCH FILTER
FILTER_SET: 1024

*** ChampSim Multicore Out-of-Order Simulator ***

Warmup Instructions: 50000000
Simulation Instructions: 50000000
Number of CPUs: 1
LLC sets: 2048
LLC ways: 16
Off-chip DRAM Size: 4096 MB Channels: 1 Width: 64-bit Data Rate: 3200 MT/s

CPU 0 runs /home/ykhodke/ChampSim/dpc3_traces/client_007.champsimtrace.xz
LHT KB: 63.12
SCC KB: 1.56
Total KB: 64.69
CPU 0 L1D next line prefetcher
Heartbeat CPU 0 instructions: 10000001 cycles: 3642442 heartbeat IPC: 2.74541 cumulative IPC: 2.74541 (Simulation time: 0 hr 3 min 0 sec) 
Heartbeat CPU 0 instructions: 20000003 cycles: 7034877 heartbeat IPC: 2.94774 cumulative IPC: 2.84298 (Simulation time: 0 hr 5 min 28 sec) 
Heartbeat CPU 0 instructions: 30000000 cycles: 10907238 heartbeat IPC: 2.5824 cumulative IPC: 2.75047 (Simulation time: 0 hr 8 min 17 sec) 
Heartbeat CPU 0 instructions: 40000003 cycles: 15067376 heartbeat IPC: 2.40377 cumulative IPC: 2.65474 (Simulation time: 0 hr 10 min 56 sec) 
Heartbeat CPU 0 instructions: 50000002 cycles: 18472836 heartbeat IPC: 2.93646 cumulative IPC: 2.70668 (Simulation time: 0 hr 13 min 25 sec) 

Warmup complete CPU 0 instructions: 50000002 cycles: 18472836 (Simulation time: 0 hr 13 min 25 sec) 

Heartbeat CPU 0 instructions: 60000003 cycles: 25362426 heartbeat IPC: 1.45147 cumulative IPC: 1.45147 (Simulation time: 0 hr 16 min 9 sec) 
Heartbeat CPU 0 instructions: 70000003 cycles: 34215664 heartbeat IPC: 1.12953 cumulative IPC: 1.27042 (Simulation time: 0 hr 19 min 3 sec) 
Heartbeat CPU 0 instructions: 80000002 cycles: 39533284 heartbeat IPC: 1.88054 cumulative IPC: 1.42447 (Simulation time: 0 hr 21 min 8 sec) 
Heartbeat CPU 0 instructions: 90000002 cycles: 47151354 heartbeat IPC: 1.31267 cumulative IPC: 1.39477 (Simulation time: 0 hr 24 min 6 sec) 
Heartbeat CPU 0 instructions: 100000002 cycles: 56093275 heartbeat IPC: 1.11833 cumulative IPC: 1.32906 (Simulation time: 0 hr 26 min 26 sec) 
Finished CPU 0 instructions: 50000000 cycles: 37620439 cumulative IPC: 1.32906 (Simulation time: 0 hr 26 min 26 sec) 

ChampSim completed all CPUs

Region of Interest Statistics

CPU 0 cumulative IPC: 1.32906 instructions: 50000000 cycles: 37620439
L1D TOTAL     ACCESS:   21201809  HIT:   20032804  MISS:    1169005
L1D LOAD      ACCESS:    8371925  HIT:    7832540  MISS:     539385
L1D RFO       ACCESS:    4868764  HIT:    4777730  MISS:      91034
L1D PREFETCH  ACCESS:    7961120  HIT:    7422534  MISS:     538586
L1D WRITEBACK ACCESS:          0  HIT:          0  MISS:          0
L1D PREFETCH  REQUESTED:    8424420  ISSUED:    8181125  USEFUL:     158104  USELESS:     380498
L1D AVERAGE MISS LATENCY: 34.6729 cycles
L1I TOTAL     ACCESS:   16615338  HIT:   15320505  MISS:    1294833
L1I LOAD      ACCESS:    9116571  HIT:    9058455  MISS:      58116
L1I RFO       ACCESS:          0  HIT:          0  MISS:          0
L1I PREFETCH  ACCESS:    7498767  HIT:    6262050  MISS:    1236717
L1I WRITEBACK ACCESS:          0  HIT:          0  MISS:          0
L1I PREFETCH  REQUESTED:    8282718  ISSUED:    8282718  USEFUL:     829770  USELESS:     406920
L1I AVERAGE MISS LATENCY: 15.8544 cycles
L2C TOTAL     ACCESS:    3673852  HIT:    3463906  MISS:     209946
L2C LOAD      ACCESS:     520153  HIT:     452415  MISS:      67738
L2C RFO       ACCESS:      89505  HIT:      47971  MISS:      41534
L2C PREFETCH  ACCESS:    2736515  HIT:    2635949  MISS:     100566
L2C WRITEBACK ACCESS:     327679  HIT:     327571  MISS:        108
L2C PREFETCH  REQUESTED:    2659181  ISSUED:    2651082  USEFUL:       8912  USELESS:      91834
L2C AVERAGE MISS LATENCY: 127.301 cycles
LLC TOTAL     ACCESS:     908743  HIT:     737831  MISS:     170912
LLC LOAD      ACCESS:      67676  HIT:      33392  MISS:      34284
LLC RFO       ACCESS:      41534  HIT:       7104  MISS:      34430
LLC PREFETCH  ACCESS:     725145  HIT:     623229  MISS:     101916
LLC WRITEBACK ACCESS:      74388  HIT:      74106  MISS:        282
LLC PREFETCH  REQUESTED:          0  ISSUED:          0  USEFUL:      17744  USELESS:      85483
LLC AVERAGE MISS LATENCY: 184.611 cycles
Major fault: 0 Minor fault: 4427
CPU 0 L1D next line prefetcher final stats

DRAM Statistics
 CHANNEL 0
 RQ ROW_BUFFER_HIT:      36627  ROW_BUFFER_MISS:     133991
 DBUS_CONGESTED:      96168
 WQ ROW_BUFFER_HIT:      12789  ROW_BUFFER_MISS:      45142  FULL:          0

 AVG_CONGESTED_CYCLE: 5

CPU 0 Branch Prediction Accuracy: 98.8607% MPKI: 1.8623 Average ROB Occupancy at Mispredict: 113.534

Branch types
NOT_BRANCH: 41826773 83.6535%
BRANCH_DIRECT_JUMP: 735330 1.47066%
BRANCH_INDIRECT: 269194 0.538388%
BRANCH_CONDITIONAL: 5957947 11.9159%
BRANCH_DIRECT_CALL: 368758 0.737516%
BRANCH_INDIRECT_CALL: 226975 0.45395%
BRANCH_RETURN: 614696 1.22939%
BRANCH_OTHER: 0 0%

