Initialize SIGNATURE TABLE
ST_SET: 1
ST_WAY: 256
ST_TAG_BIT: 16
ST_TAG_MASK: ffff

Initialize PATTERN TABLE
PT_SET: 512
PT_WAY: 4
SIG_DELTA_BIT: 7
C_SIG_BIT: 4
C_DELTA_BIT: 4

Initialize PREFETCH FILTER
FILTER_SET: 1024

*** ChampSim Multicore Out-of-Order Simulator ***

Warmup Instructions: 50000000
Simulation Instructions: 50000000
Number of CPUs: 1
LLC sets: 2048
LLC ways: 16
Off-chip DRAM Size: 4096 MB Channels: 1 Width: 64-bit Data Rate: 3200 MT/s

CPU 0 runs /home/ykhodke/ChampSim/dpc3_traces/client_007.champsimtrace.xz
LHT KB: 126.25
SCC KB: 1.56
Total KB: 127.81
CPU 0 L1D next line prefetcher
Heartbeat CPU 0 instructions: 10000001 cycles: 3642909 heartbeat IPC: 2.74506 cumulative IPC: 2.74506 (Simulation time: 0 hr 3 min 37 sec) 
Heartbeat CPU 0 instructions: 20000003 cycles: 7035624 heartbeat IPC: 2.94749 cumulative IPC: 2.84268 (Simulation time: 0 hr 6 min 49 sec) 
Heartbeat CPU 0 instructions: 30000000 cycles: 10908337 heartbeat IPC: 2.58217 cumulative IPC: 2.75019 (Simulation time: 0 hr 10 min 36 sec) 
Heartbeat CPU 0 instructions: 40000003 cycles: 15068396 heartbeat IPC: 2.40381 cumulative IPC: 2.65456 (Simulation time: 0 hr 14 min 3 sec) 
Heartbeat CPU 0 instructions: 50000002 cycles: 18474052 heartbeat IPC: 2.93629 cumulative IPC: 2.7065 (Simulation time: 0 hr 17 min 0 sec) 

Warmup complete CPU 0 instructions: 50000002 cycles: 18474052 (Simulation time: 0 hr 17 min 0 sec) 

Heartbeat CPU 0 instructions: 60000003 cycles: 25368808 heartbeat IPC: 1.45038 cumulative IPC: 1.45038 (Simulation time: 0 hr 20 min 2 sec) 
Heartbeat CPU 0 instructions: 70000003 cycles: 34220585 heartbeat IPC: 1.12972 cumulative IPC: 1.27012 (Simulation time: 0 hr 23 min 1 sec) 
Heartbeat CPU 0 instructions: 80000002 cycles: 39523335 heartbeat IPC: 1.88581 cumulative IPC: 1.42523 (Simulation time: 0 hr 25 min 2 sec) 
Heartbeat CPU 0 instructions: 90000002 cycles: 47148419 heartbeat IPC: 1.31146 cumulative IPC: 1.39497 (Simulation time: 0 hr 27 min 36 sec) 
Heartbeat CPU 0 instructions: 100000002 cycles: 56102213 heartbeat IPC: 1.11685 cumulative IPC: 1.32879 (Simulation time: 0 hr 29 min 11 sec) 
Finished CPU 0 instructions: 50000000 cycles: 37628161 cumulative IPC: 1.32879 (Simulation time: 0 hr 29 min 11 sec) 

ChampSim completed all CPUs

Region of Interest Statistics

CPU 0 cumulative IPC: 1.32879 instructions: 50000000 cycles: 37628161
L1D TOTAL     ACCESS:   21199212  HIT:   20030239  MISS:    1168973
L1D LOAD      ACCESS:    8371181  HIT:    7831614  MISS:     539567
L1D RFO       ACCESS:    4868668  HIT:    4777656  MISS:      91012
L1D PREFETCH  ACCESS:    7959363  HIT:    7420969  MISS:     538394
L1D WRITEBACK ACCESS:          0  HIT:          0  MISS:          0
L1D PREFETCH  REQUESTED:    8423546  ISSUED:    8180216  USEFUL:     157895  USELESS:     380515
L1D AVERAGE MISS LATENCY: 34.8899 cycles
L1I TOTAL     ACCESS:   16832121  HIT:   15461357  MISS:    1370764
L1I LOAD      ACCESS:    9118368  HIT:    9059997  MISS:      58371
L1I RFO       ACCESS:          0  HIT:          0  MISS:          0
L1I PREFETCH  ACCESS:    7713753  HIT:    6401360  MISS:    1312393
L1I WRITEBACK ACCESS:          0  HIT:          0  MISS:          0
L1I PREFETCH  REQUESTED:    8495613  ISSUED:    8495613  USEFUL:     840085  USELESS:     472293
L1I AVERAGE MISS LATENCY: 15.9013 cycles
L2C TOTAL     ACCESS:    3697437  HIT:    3483916  MISS:     213521
L2C LOAD      ACCESS:     520970  HIT:     451798  MISS:      69172
L2C RFO       ACCESS:      89489  HIT:      47448  MISS:      42041
L2C PREFETCH  ACCESS:    2759318  HIT:    2657105  MISS:     102213
L2C WRITEBACK ACCESS:     327660  HIT:     327565  MISS:         95
L2C PREFETCH  REQUESTED:    2730239  ISSUED:    2720984  USEFUL:       8925  USELESS:      93386
L2C AVERAGE MISS LATENCY: 126.065 cycles
LLC TOTAL     ACCESS:    1006561  HIT:     836088  MISS:     170473
LLC LOAD      ACCESS:      69087  HIT:      34775  MISS:      34312
LLC RFO       ACCESS:      42041  HIT:       7558  MISS:      34483
LLC PREFETCH  ACCESS:     820090  HIT:     718722  MISS:     101368
LLC WRITEBACK ACCESS:      75343  HIT:      75033  MISS:        310
LLC PREFETCH  REQUESTED:          0  ISSUED:          0  USEFUL:      17605  USELESS:      85285
LLC AVERAGE MISS LATENCY: 186.401 cycles
Major fault: 0 Minor fault: 4427
CPU 0 L1D next line prefetcher final stats

DRAM Statistics
 CHANNEL 0
 RQ ROW_BUFFER_HIT:      36390  ROW_BUFFER_MISS:     133768
 DBUS_CONGESTED:      94981
 WQ ROW_BUFFER_HIT:      12889  ROW_BUFFER_MISS:      44861  FULL:          0

 AVG_CONGESTED_CYCLE: 5

CPU 0 Branch Prediction Accuracy: 98.8607% MPKI: 1.8623 Average ROB Occupancy at Mispredict: 113.855

Branch types
NOT_BRANCH: 41826773 83.6535%
BRANCH_DIRECT_JUMP: 735330 1.47066%
BRANCH_INDIRECT: 269194 0.538388%
BRANCH_CONDITIONAL: 5957947 11.9159%
BRANCH_DIRECT_CALL: 368758 0.737516%
BRANCH_INDIRECT_CALL: 226975 0.45395%
BRANCH_RETURN: 614696 1.22939%
BRANCH_OTHER: 0 0%

