Initialize SIGNATURE TABLE
ST_SET: 1
ST_WAY: 256
ST_TAG_BIT: 16
ST_TAG_MASK: ffff

Initialize PATTERN TABLE
PT_SET: 512
PT_WAY: 4
SIG_DELTA_BIT: 7
C_SIG_BIT: 4
C_DELTA_BIT: 4

Initialize PREFETCH FILTER
FILTER_SET: 1024

*** ChampSim Multicore Out-of-Order Simulator ***

Warmup Instructions: 50000000
Simulation Instructions: 50000000
Number of CPUs: 1
LLC sets: 2048
LLC ways: 16
Off-chip DRAM Size: 4096 MB Channels: 1 Width: 64-bit Data Rate: 3200 MT/s

CPU 0 runs /home/ykhodke/ChampSim/dpc3_traces/client_007.champsimtrace.xz
L1I D-JOLT instruction prefetcher has been constructed!
CPU 0 L1D next line prefetcher
Heartbeat CPU 0 instructions: 10000001 cycles: 3642563 heartbeat IPC: 2.74532 cumulative IPC: 2.74532 (Simulation time: 0 hr 3 min 38 sec) 
Heartbeat CPU 0 instructions: 20000003 cycles: 7035058 heartbeat IPC: 2.94768 cumulative IPC: 2.84291 (Simulation time: 0 hr 6 min 22 sec) 
Heartbeat CPU 0 instructions: 30000000 cycles: 10908164 heartbeat IPC: 2.58191 cumulative IPC: 2.75023 (Simulation time: 0 hr 9 min 35 sec) 
Heartbeat CPU 0 instructions: 40000003 cycles: 15068097 heartbeat IPC: 2.40389 cumulative IPC: 2.65462 (Simulation time: 0 hr 12 min 50 sec) 
Heartbeat CPU 0 instructions: 50000002 cycles: 18473854 heartbeat IPC: 2.9362 cumulative IPC: 2.70653 (Simulation time: 0 hr 15 min 52 sec) 

Warmup complete CPU 0 instructions: 50000002 cycles: 18473854 (Simulation time: 0 hr 15 min 52 sec) 

Heartbeat CPU 0 instructions: 60000003 cycles: 25360941 heartbeat IPC: 1.45199 cumulative IPC: 1.45199 (Simulation time: 0 hr 19 min 21 sec) 
Heartbeat CPU 0 instructions: 70000003 cycles: 34233638 heartbeat IPC: 1.12705 cumulative IPC: 1.26905 (Simulation time: 0 hr 22 min 49 sec) 
Heartbeat CPU 0 instructions: 80000002 cycles: 39567801 heartbeat IPC: 1.87471 cumulative IPC: 1.42221 (Simulation time: 0 hr 24 min 56 sec) 
Heartbeat CPU 0 instructions: 90000002 cycles: 47176942 heartbeat IPC: 1.31421 cumulative IPC: 1.39358 (Simulation time: 0 hr 27 min 44 sec) 
Heartbeat CPU 0 instructions: 100000002 cycles: 56109171 heartbeat IPC: 1.11954 cumulative IPC: 1.32854 (Simulation time: 0 hr 29 min 28 sec) 
Finished CPU 0 instructions: 50000000 cycles: 37635317 cumulative IPC: 1.32854 (Simulation time: 0 hr 29 min 28 sec) 

ChampSim completed all CPUs

Region of Interest Statistics

CPU 0 cumulative IPC: 1.32854 instructions: 50000000 cycles: 37635317
L1D TOTAL     ACCESS:   21198555  HIT:   20029400  MISS:    1169155
L1D LOAD      ACCESS:    8369879  HIT:    7830411  MISS:     539468
L1D RFO       ACCESS:    4868737  HIT:    4777689  MISS:      91048
L1D PREFETCH  ACCESS:    7959939  HIT:    7421300  MISS:     538639
L1D WRITEBACK ACCESS:          0  HIT:          0  MISS:          0
L1D PREFETCH  REQUESTED:    8421883  ISSUED:    8178112  USEFUL:     158124  USELESS:     380530
L1D AVERAGE MISS LATENCY: 34.5637 cycles
L1I TOTAL     ACCESS:   13369118  HIT:   12108006  MISS:    1261112
L1I LOAD      ACCESS:    9118857  HIT:    9061652  MISS:      57205
L1I RFO       ACCESS:          0  HIT:          0  MISS:          0
L1I PREFETCH  ACCESS:    4250261  HIT:    3046354  MISS:    1203907
L1I WRITEBACK ACCESS:          0  HIT:          0  MISS:          0
L1I PREFETCH  REQUESTED:    4456210  ISSUED:    4344975  USEFUL:     857467  USELESS:     346513
L1I AVERAGE MISS LATENCY: 16.4911 cycles
L2C TOTAL     ACCESS:    3619428  HIT:    3410983  MISS:     208445
L2C LOAD      ACCESS:     568699  HIT:     498513  MISS:      70186
L2C RFO       ACCESS:      89481  HIT:      47462  MISS:      42019
L2C PREFETCH  ACCESS:    2633574  HIT:    2537440  MISS:      96134
L2C WRITEBACK ACCESS:     327674  HIT:     327568  MISS:        106
L2C PREFETCH  REQUESTED:    2592620  ISSUED:    2584707  USEFUL:      10050  USELESS:      85930
L2C AVERAGE MISS LATENCY: 124.712 cycles
LLC TOTAL     ACCESS:     935344  HIT:     767273  MISS:     168071
LLC LOAD      ACCESS:      70106  HIT:      34761  MISS:      35345
LLC RFO       ACCESS:      42018  HIT:       7556  MISS:      34462
LLC PREFETCH  ACCESS:     748306  HIT:     650325  MISS:      97981
LLC WRITEBACK ACCESS:      74914  HIT:      74631  MISS:        283
LLC PREFETCH  REQUESTED:          0  ISSUED:          0  USEFUL:      18710  USELESS:      80562
LLC AVERAGE MISS LATENCY: 183.336 cycles
Major fault: 0 Minor fault: 4412
CPU 0 L1D next line prefetcher final stats

DRAM Statistics
 CHANNEL 0
 RQ ROW_BUFFER_HIT:      35009  ROW_BUFFER_MISS:     132766
 DBUS_CONGESTED:      93671
 WQ ROW_BUFFER_HIT:      13132  ROW_BUFFER_MISS:      44850  FULL:          0

 AVG_CONGESTED_CYCLE: 5

CPU 0 Branch Prediction Accuracy: 98.8607% MPKI: 1.8623 Average ROB Occupancy at Mispredict: 112.995

Branch types
NOT_BRANCH: 41826773 83.6535%
BRANCH_DIRECT_JUMP: 735330 1.47066%
BRANCH_INDIRECT: 269194 0.538388%
BRANCH_CONDITIONAL: 5957947 11.9159%
BRANCH_DIRECT_CALL: 368758 0.737516%
BRANCH_INDIRECT_CALL: 226975 0.45395%
BRANCH_RETURN: 614696 1.22939%
BRANCH_OTHER: 0 0%

