Initialize SIGNATURE TABLE
ST_SET: 1
ST_WAY: 256
ST_TAG_BIT: 16
ST_TAG_MASK: ffff

Initialize PATTERN TABLE
PT_SET: 512
PT_WAY: 4
SIG_DELTA_BIT: 7
C_SIG_BIT: 4
C_DELTA_BIT: 4

Initialize PREFETCH FILTER
FILTER_SET: 1024

*** ChampSim Multicore Out-of-Order Simulator ***

Warmup Instructions: 50000000
Simulation Instructions: 50000000
Number of CPUs: 1
LLC sets: 2048
LLC ways: 16
Off-chip DRAM Size: 4096 MB Channels: 1 Width: 64-bit Data Rate: 3200 MT/s

CPU 0 runs /home/ykhodke/ChampSim/dpc3_traces/client_006.champsimtrace.xz
CPU 0 L1D next line prefetcher
Heartbeat CPU 0 instructions: 10000003 cycles: 4267707 heartbeat IPC: 2.34318 cumulative IPC: 2.34318 (Simulation time: 0 hr 0 min 14 sec) 
Heartbeat CPU 0 instructions: 20000000 cycles: 8308340 heartbeat IPC: 2.47486 cumulative IPC: 2.40722 (Simulation time: 0 hr 0 min 28 sec) 
Heartbeat CPU 0 instructions: 30000003 cycles: 11374173 heartbeat IPC: 3.26176 cumulative IPC: 2.63755 (Simulation time: 0 hr 0 min 40 sec) 
Heartbeat CPU 0 instructions: 40000000 cycles: 14721015 heartbeat IPC: 2.98789 cumulative IPC: 2.7172 (Simulation time: 0 hr 0 min 53 sec) 
Heartbeat CPU 0 instructions: 50000003 cycles: 18826288 heartbeat IPC: 2.43589 cumulative IPC: 2.65586 (Simulation time: 0 hr 1 min 7 sec) 

Warmup complete CPU 0 instructions: 50000003 cycles: 18826288 (Simulation time: 0 hr 1 min 7 sec) 

Heartbeat CPU 0 instructions: 60000001 cycles: 28061243 heartbeat IPC: 1.08284 cumulative IPC: 1.08284 (Simulation time: 0 hr 1 min 18 sec) 
Heartbeat CPU 0 instructions: 70000003 cycles: 37980157 heartbeat IPC: 1.00818 cumulative IPC: 1.04418 (Simulation time: 0 hr 1 min 31 sec) 
Heartbeat CPU 0 instructions: 80000002 cycles: 47922581 heartbeat IPC: 1.00579 cumulative IPC: 1.03106 (Simulation time: 0 hr 1 min 43 sec) 
Heartbeat CPU 0 instructions: 90000003 cycles: 55814035 heartbeat IPC: 1.26719 cumulative IPC: 1.08144 (Simulation time: 0 hr 1 min 54 sec) 
Heartbeat CPU 0 instructions: 100000001 cycles: 65651651 heartbeat IPC: 1.01651 cumulative IPC: 1.0678 (Simulation time: 0 hr 2 min 5 sec) 
Finished CPU 0 instructions: 50000002 cycles: 46825364 cumulative IPC: 1.0678 (Simulation time: 0 hr 2 min 5 sec) 

ChampSim completed all CPUs

Region of Interest Statistics

CPU 0 cumulative IPC: 1.0678 instructions: 50000002 cycles: 46825364
L1D TOTAL     ACCESS:   17095562  HIT:   16368662  MISS:     726900
L1D LOAD      ACCESS:    6601810  HIT:    6200136  MISS:     401674
L1D RFO       ACCESS:    4353239  HIT:    4310709  MISS:      42530
L1D PREFETCH  ACCESS:    6140513  HIT:    5857817  MISS:     282696
L1D WRITEBACK ACCESS:          0  HIT:          0  MISS:          0
L1D PREFETCH  REQUESTED:    6642266  ISSUED:    6462751  USEFUL:     121375  USELESS:     161194
L1D AVERAGE MISS LATENCY: 79.4792 cycles
L1I TOTAL     ACCESS:    8410664  HIT:    7723827  MISS:     686837
L1I LOAD      ACCESS:    8410664  HIT:    7723827  MISS:     686837
L1I RFO       ACCESS:          0  HIT:          0  MISS:          0
L1I PREFETCH  ACCESS:          0  HIT:          0  MISS:          0
L1I WRITEBACK ACCESS:          0  HIT:          0  MISS:          0
L1I PREFETCH  REQUESTED:          0  ISSUED:          0  USEFUL:          0  USELESS:          0
L1I AVERAGE MISS LATENCY: 20.5492 cycles
L2C TOTAL     ACCESS:    2511338  HIT:    1968732  MISS:     542606
L2C LOAD      ACCESS:    1023877  HIT:     748908  MISS:     274969
L2C RFO       ACCESS:      42269  HIT:      12450  MISS:      29819
L2C PREFETCH  ACCESS:    1269233  HIT:    1032109  MISS:     237124
L2C WRITEBACK ACCESS:     175959  HIT:     175265  MISS:        694
L2C PREFETCH  REQUESTED:    2496316  ISSUED:    2475161  USEFUL:       9833  USELESS:     226814
L2C AVERAGE MISS LATENCY: 107.358 cycles
LLC TOTAL     ACCESS:    1279301  HIT:     896130  MISS:     383171
LLC LOAD      ACCESS:     264956  HIT:     162307  MISS:     102649
LLC RFO       ACCESS:      29818  HIT:       4993  MISS:      24825
LLC PREFETCH  ACCESS:     850665  HIT:     595564  MISS:     255101
LLC WRITEBACK ACCESS:     133862  HIT:     133266  MISS:        596
LLC PREFETCH  REQUESTED:          0  ISSUED:          0  USEFUL:      49239  USELESS:     209231
LLC AVERAGE MISS LATENCY: 184.742 cycles
Major fault: 0 Minor fault: 10527
CPU 0 L1D next line prefetcher final stats

DRAM Statistics
 CHANNEL 0
 RQ ROW_BUFFER_HIT:      97068  ROW_BUFFER_MISS:     285499
 DBUS_CONGESTED:     223621
 WQ ROW_BUFFER_HIT:      22812  ROW_BUFFER_MISS:      91882  FULL:          0

 AVG_CONGESTED_CYCLE: 5

CPU 0 Branch Prediction Accuracy: 98.1683% MPKI: 3.13642 Average ROB Occupancy at Mispredict: 77.0214

Branch types
NOT_BRANCH: 41438057 82.8761%
BRANCH_DIRECT_JUMP: 413829 0.827658%
BRANCH_INDIRECT: 47058 0.094116%
BRANCH_CONDITIONAL: 6843835 13.6877%
BRANCH_DIRECT_CALL: 536885 1.07377%
BRANCH_INDIRECT_CALL: 90642 0.181284%
BRANCH_RETURN: 629329 1.25866%
BRANCH_OTHER: 0 0%

