Initialize SIGNATURE TABLE
ST_SET: 1
ST_WAY: 256
ST_TAG_BIT: 16
ST_TAG_MASK: ffff

Initialize PATTERN TABLE
PT_SET: 512
PT_WAY: 4
SIG_DELTA_BIT: 7
C_SIG_BIT: 4
C_DELTA_BIT: 4

Initialize PREFETCH FILTER
FILTER_SET: 1024

*** ChampSim Multicore Out-of-Order Simulator ***

Warmup Instructions: 50000000
Simulation Instructions: 50000000
Number of CPUs: 1
LLC sets: 2048
LLC ways: 16
Off-chip DRAM Size: 4096 MB Channels: 1 Width: 64-bit Data Rate: 3200 MT/s

CPU 0 runs /home/ykhodke/ChampSim/dpc3_traces/client_002.champsimtrace.xz
L1I D-JOLT instruction prefetcher has been constructed!
CPU 0 L1D next line prefetcher
Heartbeat CPU 0 instructions: 10000000 cycles: 3404711 heartbeat IPC: 2.93711 cumulative IPC: 2.93711 (Simulation time: 0 hr 2 min 34 sec) 
Heartbeat CPU 0 instructions: 20000002 cycles: 6860002 heartbeat IPC: 2.89411 cumulative IPC: 2.91545 (Simulation time: 0 hr 5 min 45 sec) 
Heartbeat CPU 0 instructions: 30000001 cycles: 10292533 heartbeat IPC: 2.9133 cumulative IPC: 2.91473 (Simulation time: 0 hr 8 min 41 sec) 
Heartbeat CPU 0 instructions: 40000002 cycles: 13724941 heartbeat IPC: 2.91341 cumulative IPC: 2.9144 (Simulation time: 0 hr 11 min 49 sec) 
Heartbeat CPU 0 instructions: 50000002 cycles: 17165309 heartbeat IPC: 2.90667 cumulative IPC: 2.91285 (Simulation time: 0 hr 14 min 32 sec) 

Warmup complete CPU 0 instructions: 50000002 cycles: 17165309 (Simulation time: 0 hr 14 min 32 sec) 

Heartbeat CPU 0 instructions: 60000002 cycles: 23080106 heartbeat IPC: 1.69068 cumulative IPC: 1.69068 (Simulation time: 0 hr 17 min 11 sec) 
Heartbeat CPU 0 instructions: 70000001 cycles: 29047058 heartbeat IPC: 1.6759 cumulative IPC: 1.68325 (Simulation time: 0 hr 20 min 2 sec) 
Heartbeat CPU 0 instructions: 80000003 cycles: 34892913 heartbeat IPC: 1.71061 cumulative IPC: 1.69228 (Simulation time: 0 hr 22 min 44 sec) 
Heartbeat CPU 0 instructions: 90000000 cycles: 41305905 heartbeat IPC: 1.55933 cumulative IPC: 1.65696 (Simulation time: 0 hr 25 min 23 sec) 
Heartbeat CPU 0 instructions: 100000003 cycles: 47202484 heartbeat IPC: 1.6959 cumulative IPC: 1.6646 (Simulation time: 0 hr 27 min 34 sec) 
Finished CPU 0 instructions: 50000001 cycles: 30037175 cumulative IPC: 1.6646 (Simulation time: 0 hr 27 min 34 sec) 

ChampSim completed all CPUs

Region of Interest Statistics

CPU 0 cumulative IPC: 1.6646 instructions: 50000001 cycles: 30037175
L1D TOTAL     ACCESS:   19055589  HIT:   18716395  MISS:     339194
L1D LOAD      ACCESS:    6449100  HIT:    6331745  MISS:     117355
L1D RFO       ACCESS:    6417815  HIT:    6327939  MISS:      89876
L1D PREFETCH  ACCESS:    6188674  HIT:    6056711  MISS:     131963
L1D WRITEBACK ACCESS:          0  HIT:          0  MISS:          0
L1D PREFETCH  REQUESTED:    6459266  ISSUED:    6258555  USEFUL:      53173  USELESS:      78932
L1D AVERAGE MISS LATENCY: 49.5428 cycles
L1I TOTAL     ACCESS:   17428786  HIT:   15648712  MISS:    1780074
L1I LOAD      ACCESS:    9562123  HIT:    9533623  MISS:      28500
L1I RFO       ACCESS:          0  HIT:          0  MISS:          0
L1I PREFETCH  ACCESS:    7866663  HIT:    6115089  MISS:    1751574
L1I WRITEBACK ACCESS:          0  HIT:          0  MISS:          0
L1I PREFETCH  REQUESTED:    8463486  ISSUED:    8181549  USEFUL:     945100  USELESS:     806427
L1I AVERAGE MISS LATENCY: 16.4864 cycles
L2C TOTAL     ACCESS:    2972943  HIT:    2721396  MISS:     251547
L2C LOAD      ACCESS:     124857  HIT:      85745  MISS:      39112
L2C RFO       ACCESS:      88844  HIT:      22525  MISS:      66319
L2C PREFETCH  ACCESS:    2633740  HIT:    2488089  MISS:     145651
L2C WRITEBACK ACCESS:     125502  HIT:     125037  MISS:        465
L2C PREFETCH  REQUESTED:    1689232  ISSUED:    1688690  USEFUL:       8166  USELESS:     136726
L2C AVERAGE MISS LATENCY: 63.2516 cycles
LLC TOTAL     ACCESS:     717659  HIT:     651257  MISS:      66402
LLC LOAD      ACCESS:      39111  HIT:      33266  MISS:       5845
LLC RFO       ACCESS:      66317  HIT:      36688  MISS:      29629
LLC PREFETCH  ACCESS:     527454  HIT:     496774  MISS:      30680
LLC WRITEBACK ACCESS:      84777  HIT:      84529  MISS:        248
LLC PREFETCH  REQUESTED:          0  ISSUED:          0  USEFUL:       5679  USELESS:      24470
LLC AVERAGE MISS LATENCY: 178.559 cycles
Major fault: 0 Minor fault: 3093
CPU 0 L1D next line prefetcher final stats

DRAM Statistics
 CHANNEL 0
 RQ ROW_BUFFER_HIT:      22503  ROW_BUFFER_MISS:      43651
 DBUS_CONGESTED:      42457
 WQ ROW_BUFFER_HIT:       8817  ROW_BUFFER_MISS:      28051  FULL:          0

 AVG_CONGESTED_CYCLE: 6

CPU 0 Branch Prediction Accuracy: 99.2117% MPKI: 1.49752 Average ROB Occupancy at Mispredict: 121.29

Branch types
NOT_BRANCH: 40501616 81.0032%
BRANCH_DIRECT_JUMP: 517397 1.03479%
BRANCH_INDIRECT: 112348 0.224696%
BRANCH_CONDITIONAL: 6698737 13.3975%
BRANCH_DIRECT_CALL: 960974 1.92195%
BRANCH_INDIRECT_CALL: 123707 0.247414%
BRANCH_RETURN: 1084929 2.16986%
BRANCH_OTHER: 0 0%

