Initialize SIGNATURE TABLE
ST_SET: 1
ST_WAY: 256
ST_TAG_BIT: 16
ST_TAG_MASK: ffff

Initialize PATTERN TABLE
PT_SET: 512
PT_WAY: 4
SIG_DELTA_BIT: 7
C_SIG_BIT: 4
C_DELTA_BIT: 4

Initialize PREFETCH FILTER
FILTER_SET: 1024

*** ChampSim Multicore Out-of-Order Simulator ***

Warmup Instructions: 50000000
Simulation Instructions: 50000000
Number of CPUs: 1
LLC sets: 2048
LLC ways: 16
Off-chip DRAM Size: 4096 MB Channels: 1 Width: 64-bit Data Rate: 3200 MT/s

CPU 0 runs /home/ykhodke/ChampSim/dpc3_traces/client_005.champsimtrace.xz
L1I D-JOLT instruction prefetcher has been constructed!
CPU 0 L1D next line prefetcher
Heartbeat CPU 0 instructions: 10000001 cycles: 3291597 heartbeat IPC: 3.03804 cumulative IPC: 3.03804 (Simulation time: 0 hr 3 min 37 sec) 
Heartbeat CPU 0 instructions: 20000002 cycles: 6697796 heartbeat IPC: 2.93582 cumulative IPC: 2.98606 (Simulation time: 0 hr 6 min 54 sec) 
Heartbeat CPU 0 instructions: 30000001 cycles: 10391166 heartbeat IPC: 2.70755 cumulative IPC: 2.88707 (Simulation time: 0 hr 10 min 34 sec) 
Heartbeat CPU 0 instructions: 40000000 cycles: 14069118 heartbeat IPC: 2.7189 cumulative IPC: 2.84311 (Simulation time: 0 hr 13 min 40 sec) 
Heartbeat CPU 0 instructions: 50000001 cycles: 17342921 heartbeat IPC: 3.05455 cumulative IPC: 2.88302 (Simulation time: 0 hr 16 min 27 sec) 

Warmup complete CPU 0 instructions: 50000001 cycles: 17342921 (Simulation time: 0 hr 16 min 27 sec) 

Heartbeat CPU 0 instructions: 60000002 cycles: 25336149 heartbeat IPC: 1.25106 cumulative IPC: 1.25106 (Simulation time: 0 hr 19 min 19 sec) 
Heartbeat CPU 0 instructions: 70000003 cycles: 32757184 heartbeat IPC: 1.34752 cumulative IPC: 1.2975 (Simulation time: 0 hr 22 min 8 sec) 
Heartbeat CPU 0 instructions: 80000001 cycles: 39640771 heartbeat IPC: 1.45273 cumulative IPC: 1.34542 (Simulation time: 0 hr 25 min 18 sec) 
Heartbeat CPU 0 instructions: 90000002 cycles: 49213653 heartbeat IPC: 1.04462 cumulative IPC: 1.25507 (Simulation time: 0 hr 28 min 20 sec) 
Heartbeat CPU 0 instructions: 100000002 cycles: 57029794 heartbeat IPC: 1.2794 cumulative IPC: 1.25986 (Simulation time: 0 hr 29 min 56 sec) 
Finished CPU 0 instructions: 50000001 cycles: 39686873 cumulative IPC: 1.25986 (Simulation time: 0 hr 29 min 56 sec) 

ChampSim completed all CPUs

Region of Interest Statistics

CPU 0 cumulative IPC: 1.25986 instructions: 50000001 cycles: 39686873
L1D TOTAL     ACCESS:   19657572  HIT:   19121722  MISS:     535850
L1D LOAD      ACCESS:    6659688  HIT:    6487966  MISS:     171722
L1D RFO       ACCESS:    6791098  HIT:    6606475  MISS:     184623
L1D PREFETCH  ACCESS:    6206786  HIT:    6027281  MISS:     179505
L1D WRITEBACK ACCESS:          0  HIT:          0  MISS:          0
L1D PREFETCH  REQUESTED:    6683825  ISSUED:    6313780  USEFUL:      59382  USELESS:     120011
L1D AVERAGE MISS LATENCY: 95.3107 cycles
L1I TOTAL     ACCESS:   19387203  HIT:   16107418  MISS:    3279785
L1I LOAD      ACCESS:    9408616  HIT:    9250952  MISS:     157664
L1I RFO       ACCESS:          0  HIT:          0  MISS:          0
L1I PREFETCH  ACCESS:    9978587  HIT:    6856466  MISS:    3122121
L1I WRITEBACK ACCESS:          0  HIT:          0  MISS:          0
L1I PREFETCH  REQUESTED:   10787582  ISSUED:   10190785  USEFUL:    1099050  USELESS:    2022987
L1I AVERAGE MISS LATENCY: 16.3492 cycles
L2C TOTAL     ACCESS:    5317821  HIT:    4917377  MISS:     400444
L2C LOAD      ACCESS:     309514  HIT:     209727  MISS:      99787
L2C RFO       ACCESS:     180883  HIT:      30947  MISS:     149936
L2C PREFETCH  ACCESS:    4574354  HIT:    4425059  MISS:     149295
L2C WRITEBACK ACCESS:     253070  HIT:     251644  MISS:       1426
L2C PREFETCH  REQUESTED:    2389265  ISSUED:    2389008  USEFUL:      21108  USELESS:     127353
L2C AVERAGE MISS LATENCY: 125.099 cycles
LLC TOTAL     ACCESS:     995776  HIT:     695653  MISS:     300123
LLC LOAD      ACCESS:      99768  HIT:      52605  MISS:      47163
LLC RFO       ACCESS:     149934  HIT:      15673  MISS:     134261
LLC PREFETCH  ACCESS:     545264  HIT:     427391  MISS:     117873
LLC WRITEBACK ACCESS:     200810  HIT:     199984  MISS:        826
LLC PREFETCH  REQUESTED:          0  ISSUED:          0  USEFUL:      26088  USELESS:      90279
LLC AVERAGE MISS LATENCY: 167.091 cycles
Major fault: 0 Minor fault: 6090
CPU 0 L1D next line prefetcher final stats

DRAM Statistics
 CHANNEL 0
 RQ ROW_BUFFER_HIT:      94653  ROW_BUFFER_MISS:     204631
 DBUS_CONGESTED:     230782
 WQ ROW_BUFFER_HIT:      53630  ROW_BUFFER_MISS:     129092  FULL:          0

 AVG_CONGESTED_CYCLE: 6

CPU 0 Branch Prediction Accuracy: 97.8666% MPKI: 3.9013 Average ROB Occupancy at Mispredict: 85.8695

Branch types
NOT_BRANCH: 40856327 81.7127%
BRANCH_DIRECT_JUMP: 484667 0.969334%
BRANCH_INDIRECT: 85086 0.170172%
BRANCH_CONDITIONAL: 6230887 12.4618%
BRANCH_DIRECT_CALL: 1028917 2.05783%
BRANCH_INDIRECT_CALL: 141825 0.28365%
BRANCH_RETURN: 1171985 2.34397%
BRANCH_OTHER: 0 0%

