Initialize SIGNATURE TABLE
ST_SET: 1
ST_WAY: 256
ST_TAG_BIT: 16
ST_TAG_MASK: ffff

Initialize PATTERN TABLE
PT_SET: 512
PT_WAY: 4
SIG_DELTA_BIT: 7
C_SIG_BIT: 4
C_DELTA_BIT: 4

Initialize PREFETCH FILTER
FILTER_SET: 1024

*** ChampSim Multicore Out-of-Order Simulator ***

Warmup Instructions: 50000000
Simulation Instructions: 50000000
Number of CPUs: 1
LLC sets: 2048
LLC ways: 16
Off-chip DRAM Size: 4096 MB Channels: 1 Width: 64-bit Data Rate: 3200 MT/s

CPU 0 runs /home/ykhodke/ChampSim/dpc3_traces/client_005.champsimtrace.xz
LHT KB: 126.25
SCC KB: 1.56
Total KB: 127.81
CPU 0 L1D next line prefetcher
Heartbeat CPU 0 instructions: 10000001 cycles: 3292527 heartbeat IPC: 3.03718 cumulative IPC: 3.03718 (Simulation time: 0 hr 3 min 9 sec) 
Heartbeat CPU 0 instructions: 20000002 cycles: 6698300 heartbeat IPC: 2.93619 cumulative IPC: 2.98583 (Simulation time: 0 hr 6 min 0 sec) 
Heartbeat CPU 0 instructions: 30000001 cycles: 10391567 heartbeat IPC: 2.70763 cumulative IPC: 2.88696 (Simulation time: 0 hr 8 min 48 sec) 
Heartbeat CPU 0 instructions: 40000000 cycles: 14069336 heartbeat IPC: 2.71904 cumulative IPC: 2.84306 (Simulation time: 0 hr 11 min 44 sec) 
Heartbeat CPU 0 instructions: 50000001 cycles: 17342832 heartbeat IPC: 3.05484 cumulative IPC: 2.88304 (Simulation time: 0 hr 14 min 20 sec) 

Warmup complete CPU 0 instructions: 50000001 cycles: 17342832 (Simulation time: 0 hr 14 min 20 sec) 

Heartbeat CPU 0 instructions: 60000002 cycles: 24918549 heartbeat IPC: 1.32001 cumulative IPC: 1.32001 (Simulation time: 0 hr 16 min 54 sec) 
Heartbeat CPU 0 instructions: 70000003 cycles: 32183430 heartbeat IPC: 1.37649 cumulative IPC: 1.34765 (Simulation time: 0 hr 19 min 32 sec) 
Heartbeat CPU 0 instructions: 80000001 cycles: 39056033 heartbeat IPC: 1.45505 cumulative IPC: 1.38165 (Simulation time: 0 hr 22 min 15 sec) 
Heartbeat CPU 0 instructions: 90000002 cycles: 48583599 heartbeat IPC: 1.04959 cumulative IPC: 1.28038 (Simulation time: 0 hr 25 min 10 sec) 
Heartbeat CPU 0 instructions: 100000002 cycles: 56135023 heartbeat IPC: 1.32425 cumulative IPC: 1.28892 (Simulation time: 0 hr 27 min 32 sec) 
Finished CPU 0 instructions: 50000001 cycles: 38792191 cumulative IPC: 1.28892 (Simulation time: 0 hr 27 min 32 sec) 

ChampSim completed all CPUs

Region of Interest Statistics

CPU 0 cumulative IPC: 1.28892 instructions: 50000001 cycles: 38792191
L1D TOTAL     ACCESS:   19646485  HIT:   19110678  MISS:     535807
L1D LOAD      ACCESS:    6653766  HIT:    6481922  MISS:     171844
L1D RFO       ACCESS:    6790911  HIT:    6606290  MISS:     184621
L1D PREFETCH  ACCESS:    6201808  HIT:    6022466  MISS:     179342
L1D WRITEBACK ACCESS:          0  HIT:          0  MISS:          0
L1D PREFETCH  REQUESTED:    6677669  ISSUED:    6308787  USEFUL:      59214  USELESS:     120017
L1D AVERAGE MISS LATENCY: 94.9886 cycles
L1I TOTAL     ACCESS:   19778238  HIT:   18624831  MISS:    1153407
L1I LOAD      ACCESS:    9302934  HIT:    9067836  MISS:     235098
L1I RFO       ACCESS:          0  HIT:          0  MISS:          0
L1I PREFETCH  ACCESS:   10475304  HIT:    9556995  MISS:     918309
L1I WRITEBACK ACCESS:          0  HIT:          0  MISS:          0
L1I PREFETCH  REQUESTED:   12830483  ISSUED:   12830482  USEFUL:     541230  USELESS:     377078
L1I AVERAGE MISS LATENCY: 17.5086 cycles
L2C TOTAL     ACCESS:    2397847  HIT:    1994204  MISS:     403643
L2C LOAD      ACCESS:     199831  HIT:     123474  MISS:      76357
L2C RFO       ACCESS:     180924  HIT:      31202  MISS:     149722
L2C PREFETCH  ACCESS:    1764058  HIT:    1587822  MISS:     176236
L2C WRITEBACK ACCESS:     253034  HIT:     251706  MISS:       1328
L2C PREFETCH  REQUESTED:    1106454  ISSUED:    1106342  USEFUL:      12560  USELESS:     161219
L2C AVERAGE MISS LATENCY: 128.476 cycles
LLC TOTAL     ACCESS:     873315  HIT:     575475  MISS:     297840
LLC LOAD      ACCESS:      76351  HIT:      36825  MISS:      39526
LLC RFO       ACCESS:     149721  HIT:      16273  MISS:     133448
LLC PREFETCH  ACCESS:     446994  HIT:     322937  MISS:     124057
LLC WRITEBACK ACCESS:     200249  HIT:     199440  MISS:        809
LLC PREFETCH  REQUESTED:          0  ISSUED:          0  USEFUL:      20456  USELESS:      97863
LLC AVERAGE MISS LATENCY: 172.194 cycles
Major fault: 0 Minor fault: 6115
CPU 0 L1D next line prefetcher final stats

DRAM Statistics
 CHANNEL 0
 RQ ROW_BUFFER_HIT:      96772  ROW_BUFFER_MISS:     200252
 DBUS_CONGESTED:     238370
 WQ ROW_BUFFER_HIT:      52689  ROW_BUFFER_MISS:     130088  FULL:          0

 AVG_CONGESTED_CYCLE: 6

CPU 0 Branch Prediction Accuracy: 97.8666% MPKI: 3.9013 Average ROB Occupancy at Mispredict: 88.8394

Branch types
NOT_BRANCH: 40856330 81.7127%
BRANCH_DIRECT_JUMP: 484667 0.969334%
BRANCH_INDIRECT: 85086 0.170172%
BRANCH_CONDITIONAL: 6230887 12.4618%
BRANCH_DIRECT_CALL: 1028917 2.05783%
BRANCH_INDIRECT_CALL: 141825 0.28365%
BRANCH_RETURN: 1171986 2.34397%
BRANCH_OTHER: 0 0%

