Initialize SIGNATURE TABLE
ST_SET: 1
ST_WAY: 256
ST_TAG_BIT: 16
ST_TAG_MASK: ffff

Initialize PATTERN TABLE
PT_SET: 512
PT_WAY: 4
SIG_DELTA_BIT: 7
C_SIG_BIT: 4
C_DELTA_BIT: 4

Initialize PREFETCH FILTER
FILTER_SET: 1024

*** ChampSim Multicore Out-of-Order Simulator ***

Warmup Instructions: 50000000
Simulation Instructions: 50000000
Number of CPUs: 1
LLC sets: 2048
LLC ways: 16
Off-chip DRAM Size: 4096 MB Channels: 1 Width: 64-bit Data Rate: 3200 MT/s

CPU 0 runs /home/ykhodke/ChampSim/dpc3_traces/client_001.champsimtrace.xz
LHT KB: 126.25
SCC KB: 1.56
Total KB: 127.81
CPU 0 L1D next line prefetcher
Heartbeat CPU 0 instructions: 10000003 cycles: 3410062 heartbeat IPC: 2.9325 cumulative IPC: 2.9325 (Simulation time: 0 hr 2 min 39 sec) 
Heartbeat CPU 0 instructions: 20000001 cycles: 7118264 heartbeat IPC: 2.69672 cumulative IPC: 2.80967 (Simulation time: 0 hr 5 min 28 sec) 
Heartbeat CPU 0 instructions: 30000001 cycles: 10480682 heartbeat IPC: 2.97405 cumulative IPC: 2.86241 (Simulation time: 0 hr 7 min 59 sec) 
Heartbeat CPU 0 instructions: 40000003 cycles: 14350528 heartbeat IPC: 2.58408 cumulative IPC: 2.78735 (Simulation time: 0 hr 11 min 13 sec) 
Heartbeat CPU 0 instructions: 50000003 cycles: 17647083 heartbeat IPC: 3.03347 cumulative IPC: 2.83333 (Simulation time: 0 hr 13 min 54 sec) 

Warmup complete CPU 0 instructions: 50000003 cycles: 17647083 (Simulation time: 0 hr 13 min 54 sec) 

Heartbeat CPU 0 instructions: 60000000 cycles: 26676233 heartbeat IPC: 1.10752 cumulative IPC: 1.10752 (Simulation time: 0 hr 16 min 58 sec) 
Heartbeat CPU 0 instructions: 70000000 cycles: 32977884 heartbeat IPC: 1.58689 cumulative IPC: 1.30456 (Simulation time: 0 hr 19 min 18 sec) 
Heartbeat CPU 0 instructions: 80000002 cycles: 42314399 heartbeat IPC: 1.07106 cumulative IPC: 1.21618 (Simulation time: 0 hr 22 min 34 sec) 
Heartbeat CPU 0 instructions: 90000000 cycles: 48468022 heartbeat IPC: 1.62506 cumulative IPC: 1.29782 (Simulation time: 0 hr 24 min 49 sec) 
Heartbeat CPU 0 instructions: 100000002 cycles: 57314471 heartbeat IPC: 1.1304 cumulative IPC: 1.26048 (Simulation time: 0 hr 27 min 11 sec) 
Finished CPU 0 instructions: 50000003 cycles: 39667389 cumulative IPC: 1.26048 (Simulation time: 0 hr 27 min 11 sec) 

ChampSim completed all CPUs

Region of Interest Statistics

CPU 0 cumulative IPC: 1.26048 instructions: 50000003 cycles: 39667389
L1D TOTAL     ACCESS:   21239056  HIT:   20402600  MISS:     836456
L1D LOAD      ACCESS:    8821182  HIT:    8426507  MISS:     394675
L1D RFO       ACCESS:    4039927  HIT:    3980852  MISS:      59075
L1D PREFETCH  ACCESS:    8377947  HIT:    7995241  MISS:     382706
L1D WRITEBACK ACCESS:          0  HIT:          0  MISS:          0
L1D PREFETCH  REQUESTED:    8866562  ISSUED:    8556901  USEFUL:     129730  USELESS:     252950
L1D AVERAGE MISS LATENCY: 47.6039 cycles
L1I TOTAL     ACCESS:   14743384  HIT:   14373325  MISS:     370059
L1I LOAD      ACCESS:    8915264  HIT:    8886071  MISS:      29193
L1I RFO       ACCESS:          0  HIT:          0  MISS:          0
L1I PREFETCH  ACCESS:    5828120  HIT:    5487254  MISS:     340866
L1I WRITEBACK ACCESS:          0  HIT:          0  MISS:          0
L1I PREFETCH  REQUESTED:    6492892  ISSUED:    6492892  USEFUL:     259027  USELESS:      81823
L1I AVERAGE MISS LATENCY: 21.344 cycles
L2C TOTAL     ACCESS:    1872332  HIT:    1565068  MISS:     307264
L2C LOAD      ACCESS:     378823  HIT:     268036  MISS:     110787
L2C RFO       ACCESS:      58320  HIT:      21392  MISS:      36928
L2C PREFETCH  ACCESS:    1245595  HIT:    1086256  MISS:     159339
L2C WRITEBACK ACCESS:     189594  HIT:     189384  MISS:        210
L2C PREFETCH  REQUESTED:    1569217  ISSUED:    1562441  USEFUL:      13801  USELESS:     144345
L2C AVERAGE MISS LATENCY: 105.177 cycles
LLC TOTAL     ACCESS:     825644  HIT:     627922  MISS:     197722
LLC LOAD      ACCESS:     110464  HIT:      69698  MISS:      40766
LLC RFO       ACCESS:      36927  HIT:       8746  MISS:      28181
LLC PREFETCH  ACCESS:     572068  HIT:     444044  MISS:     128024
LLC WRITEBACK ACCESS:     106185  HIT:     105434  MISS:        751
LLC PREFETCH  REQUESTED:          0  ISSUED:          0  USEFUL:      28439  USELESS:     101250
LLC AVERAGE MISS LATENCY: 188.866 cycles
Major fault: 0 Minor fault: 3441
CPU 0 L1D next line prefetcher final stats

DRAM Statistics
 CHANNEL 0
 RQ ROW_BUFFER_HIT:      48629  ROW_BUFFER_MISS:     148336
 DBUS_CONGESTED:     119026
 WQ ROW_BUFFER_HIT:      15717  ROW_BUFFER_MISS:      65577  FULL:          0

 AVG_CONGESTED_CYCLE: 5

CPU 0 Branch Prediction Accuracy: 97.9037% MPKI: 3.63418 Average ROB Occupancy at Mispredict: 86.7861

Branch types
NOT_BRANCH: 41331383 82.6628%
BRANCH_DIRECT_JUMP: 455615 0.91123%
BRANCH_INDIRECT: 20390 0.04078%
BRANCH_CONDITIONAL: 6745374 13.4907%
BRANCH_DIRECT_CALL: 494532 0.989064%
BRANCH_INDIRECT_CALL: 228815 0.45763%
BRANCH_RETURN: 723560 1.44712%
BRANCH_OTHER: 0 0%

