Initialize SIGNATURE TABLE
ST_SET: 1
ST_WAY: 256
ST_TAG_BIT: 16
ST_TAG_MASK: ffff

Initialize PATTERN TABLE
PT_SET: 512
PT_WAY: 4
SIG_DELTA_BIT: 7
C_SIG_BIT: 4
C_DELTA_BIT: 4

Initialize PREFETCH FILTER
FILTER_SET: 1024

*** ChampSim Multicore Out-of-Order Simulator ***

Warmup Instructions: 50000000
Simulation Instructions: 50000000
Number of CPUs: 1
LLC sets: 2048
LLC ways: 16
Off-chip DRAM Size: 4096 MB Channels: 1 Width: 64-bit Data Rate: 3200 MT/s

CPU 0 runs /home/ykhodke/ChampSim/dpc3_traces/client_007.champsimtrace.xz
L1I D-JOLT instruction prefetcher has been constructed!
CPU 0 L1D next line prefetcher
Heartbeat CPU 0 instructions: 10000001 cycles: 3641881 heartbeat IPC: 2.74583 cumulative IPC: 2.74583 (Simulation time: 0 hr 2 min 55 sec) 
Heartbeat CPU 0 instructions: 20000003 cycles: 7033782 heartbeat IPC: 2.9482 cumulative IPC: 2.84342 (Simulation time: 0 hr 6 min 9 sec) 
Heartbeat CPU 0 instructions: 30000000 cycles: 10905502 heartbeat IPC: 2.58283 cumulative IPC: 2.75091 (Simulation time: 0 hr 9 min 7 sec) 
Heartbeat CPU 0 instructions: 40000003 cycles: 15065588 heartbeat IPC: 2.4038 cumulative IPC: 2.65506 (Simulation time: 0 hr 12 min 35 sec) 
Heartbeat CPU 0 instructions: 50000002 cycles: 18470557 heartbeat IPC: 2.93688 cumulative IPC: 2.70701 (Simulation time: 0 hr 15 min 17 sec) 

Warmup complete CPU 0 instructions: 50000002 cycles: 18470557 (Simulation time: 0 hr 15 min 17 sec) 

Heartbeat CPU 0 instructions: 60000003 cycles: 25365355 heartbeat IPC: 1.45037 cumulative IPC: 1.45037 (Simulation time: 0 hr 18 min 17 sec) 
Heartbeat CPU 0 instructions: 70000003 cycles: 34248681 heartbeat IPC: 1.1257 cumulative IPC: 1.26758 (Simulation time: 0 hr 21 min 19 sec) 
Heartbeat CPU 0 instructions: 80000002 cycles: 39573380 heartbeat IPC: 1.87804 cumulative IPC: 1.42161 (Simulation time: 0 hr 23 min 7 sec) 
Heartbeat CPU 0 instructions: 90000002 cycles: 47193975 heartbeat IPC: 1.31223 cumulative IPC: 1.39259 (Simulation time: 0 hr 25 min 38 sec) 
Heartbeat CPU 0 instructions: 100000002 cycles: 56122668 heartbeat IPC: 1.11998 cumulative IPC: 1.32795 (Simulation time: 0 hr 27 min 31 sec) 
Finished CPU 0 instructions: 50000000 cycles: 37652111 cumulative IPC: 1.32795 (Simulation time: 0 hr 27 min 31 sec) 

ChampSim completed all CPUs

Region of Interest Statistics

CPU 0 cumulative IPC: 1.32795 instructions: 50000000 cycles: 37652111
L1D TOTAL     ACCESS:   21196464  HIT:   20027385  MISS:    1169079
L1D LOAD      ACCESS:    8369175  HIT:    7829745  MISS:     539430
L1D RFO       ACCESS:    4868470  HIT:    4777373  MISS:      91097
L1D PREFETCH  ACCESS:    7958819  HIT:    7420267  MISS:     538552
L1D WRITEBACK ACCESS:          0  HIT:          0  MISS:          0
L1D PREFETCH  REQUESTED:    8421046  ISSUED:    8177272  USEFUL:     158080  USELESS:     380487
L1D AVERAGE MISS LATENCY: 34.531 cycles
L1I TOTAL     ACCESS:   12831906  HIT:   11716595  MISS:    1115311
L1I LOAD      ACCESS:    9111914  HIT:    9053749  MISS:      58165
L1I RFO       ACCESS:          0  HIT:          0  MISS:          0
L1I PREFETCH  ACCESS:    3719992  HIT:    2662846  MISS:    1057146
L1I WRITEBACK ACCESS:          0  HIT:          0  MISS:          0
L1I PREFETCH  REQUESTED:    3877700  ISSUED:    3851352  USEFUL:     831415  USELESS:     225728
L1I AVERAGE MISS LATENCY: 16.4129 cycles
L2C TOTAL     ACCESS:    3421596  HIT:    3214293  MISS:     207303
L2C LOAD      ACCESS:     564081  HIT:     494364  MISS:      69717
L2C RFO       ACCESS:      89464  HIT:      47575  MISS:      41889
L2C PREFETCH  ACCESS:    2440377  HIT:    2344773  MISS:      95604
L2C WRITEBACK ACCESS:     327674  HIT:     327581  MISS:         93
L2C PREFETCH  REQUESTED:    2469666  ISSUED:    2463460  USEFUL:       9845  USELESS:      85842
L2C AVERAGE MISS LATENCY: 124.697 cycles
LLC TOTAL     ACCESS:     913334  HIT:     744745  MISS:     168589
LLC LOAD      ACCESS:      69634  HIT:      34257  MISS:      35377
LLC RFO       ACCESS:      41888  HIT:       7372  MISS:      34516
LLC PREFETCH  ACCESS:     727047  HIT:     628653  MISS:      98394
LLC WRITEBACK ACCESS:      74765  HIT:      74463  MISS:        302
LLC PREFETCH  REQUESTED:          0  ISSUED:          0  USEFUL:      18362  USELESS:      81279
LLC AVERAGE MISS LATENCY: 181.629 cycles
Major fault: 0 Minor fault: 4414
CPU 0 L1D next line prefetcher final stats

DRAM Statistics
 CHANNEL 0
 RQ ROW_BUFFER_HIT:      34970  ROW_BUFFER_MISS:     133303
 DBUS_CONGESTED:      93388
 WQ ROW_BUFFER_HIT:      12874  ROW_BUFFER_MISS:      45239  FULL:          0

 AVG_CONGESTED_CYCLE: 5

CPU 0 Branch Prediction Accuracy: 98.8607% MPKI: 1.8623 Average ROB Occupancy at Mispredict: 113.169

Branch types
NOT_BRANCH: 41826773 83.6535%
BRANCH_DIRECT_JUMP: 735330 1.47066%
BRANCH_INDIRECT: 269194 0.538388%
BRANCH_CONDITIONAL: 5957947 11.9159%
BRANCH_DIRECT_CALL: 368758 0.737516%
BRANCH_INDIRECT_CALL: 226975 0.45395%
BRANCH_RETURN: 614696 1.22939%
BRANCH_OTHER: 0 0%

