Initialize SIGNATURE TABLE
ST_SET: 1
ST_WAY: 256
ST_TAG_BIT: 16
ST_TAG_MASK: ffff

Initialize PATTERN TABLE
PT_SET: 512
PT_WAY: 4
SIG_DELTA_BIT: 7
C_SIG_BIT: 4
C_DELTA_BIT: 4

Initialize PREFETCH FILTER
FILTER_SET: 1024

*** ChampSim Multicore Out-of-Order Simulator ***

Warmup Instructions: 50000000
Simulation Instructions: 50000000
Number of CPUs: 1
LLC sets: 2048
LLC ways: 16
Off-chip DRAM Size: 4096 MB Channels: 1 Width: 64-bit Data Rate: 3200 MT/s

CPU 0 runs /home/ykhodke/ChampSim/dpc3_traces/client_005.champsimtrace.xz
L1I D-JOLT instruction prefetcher has been constructed!
CPU 0 L1D next line prefetcher
Heartbeat CPU 0 instructions: 10000001 cycles: 3291734 heartbeat IPC: 3.03791 cumulative IPC: 3.03791 (Simulation time: 0 hr 2 min 58 sec) 
Heartbeat CPU 0 instructions: 20000002 cycles: 6698447 heartbeat IPC: 2.93538 cumulative IPC: 2.98577 (Simulation time: 0 hr 6 min 10 sec) 
Heartbeat CPU 0 instructions: 30000001 cycles: 10391756 heartbeat IPC: 2.7076 cumulative IPC: 2.8869 (Simulation time: 0 hr 10 min 1 sec) 
Heartbeat CPU 0 instructions: 40000000 cycles: 14069753 heartbeat IPC: 2.71887 cumulative IPC: 2.84298 (Simulation time: 0 hr 13 min 55 sec) 
Heartbeat CPU 0 instructions: 50000001 cycles: 17343334 heartbeat IPC: 3.05476 cumulative IPC: 2.88295 (Simulation time: 0 hr 16 min 37 sec) 

Warmup complete CPU 0 instructions: 50000001 cycles: 17343334 (Simulation time: 0 hr 16 min 37 sec) 

Heartbeat CPU 0 instructions: 60000002 cycles: 25282696 heartbeat IPC: 1.25955 cumulative IPC: 1.25955 (Simulation time: 0 hr 19 min 17 sec) 
Heartbeat CPU 0 instructions: 70000003 cycles: 32684728 heartbeat IPC: 1.35098 cumulative IPC: 1.30366 (Simulation time: 0 hr 22 min 7 sec) 
Heartbeat CPU 0 instructions: 80000001 cycles: 39561265 heartbeat IPC: 1.45422 cumulative IPC: 1.35026 (Simulation time: 0 hr 25 min 17 sec) 
Heartbeat CPU 0 instructions: 90000002 cycles: 49106744 heartbeat IPC: 1.04762 cumulative IPC: 1.25931 (Simulation time: 0 hr 28 min 37 sec) 
Heartbeat CPU 0 instructions: 100000002 cycles: 56891386 heartbeat IPC: 1.28458 cumulative IPC: 1.26428 (Simulation time: 0 hr 30 min 24 sec) 
Finished CPU 0 instructions: 50000001 cycles: 39548052 cumulative IPC: 1.26428 (Simulation time: 0 hr 30 min 24 sec) 

ChampSim completed all CPUs

Region of Interest Statistics

CPU 0 cumulative IPC: 1.26428 instructions: 50000001 cycles: 39548052
L1D TOTAL     ACCESS:   19643472  HIT:   19107685  MISS:     535787
L1D LOAD      ACCESS:    6652251  HIT:    6480476  MISS:     171775
L1D RFO       ACCESS:    6791503  HIT:    6606885  MISS:     184618
L1D PREFETCH  ACCESS:    6199718  HIT:    6020324  MISS:     179394
L1D WRITEBACK ACCESS:          0  HIT:          0  MISS:          0
L1D PREFETCH  REQUESTED:    6676271  ISSUED:    6306489  USEFUL:      59333  USELESS:     119950
L1D AVERAGE MISS LATENCY: 95.0444 cycles
L1I TOTAL     ACCESS:   19544027  HIT:   16317664  MISS:    3226363
L1I LOAD      ACCESS:    9398402  HIT:    9251963  MISS:     146439
L1I RFO       ACCESS:          0  HIT:          0  MISS:          0
L1I PREFETCH  ACCESS:   10145625  HIT:    7065701  MISS:    3079924
L1I WRITEBACK ACCESS:          0  HIT:          0  MISS:          0
L1I PREFETCH  REQUESTED:   10757793  ISSUED:   10382270  USEFUL:    1103225  USELESS:    1976650
L1I AVERAGE MISS LATENCY: 16.3963 cycles
L2C TOTAL     ACCESS:    5260471  HIT:    4856666  MISS:     403805
L2C LOAD      ACCESS:     284836  HIT:     186510  MISS:      98326
L2C RFO       ACCESS:     180865  HIT:      31383  MISS:     149482
L2C PREFETCH  ACCESS:    4541703  HIT:    4387129  MISS:     154574
L2C WRITEBACK ACCESS:     253067  HIT:     251644  MISS:       1423
L2C PREFETCH  REQUESTED:    2403415  ISSUED:    2403204  USEFUL:      20348  USELESS:     133085
L2C AVERAGE MISS LATENCY: 124.258 cycles
LLC TOTAL     ACCESS:    1010170  HIT:     710137  MISS:     300033
LLC LOAD      ACCESS:      98314  HIT:      51686  MISS:      46628
LLC RFO       ACCESS:     149476  HIT:      15576  MISS:     133900
LLC PREFETCH  ACCESS:     562114  HIT:     443489  MISS:     118625
LLC WRITEBACK ACCESS:     200266  HIT:     199386  MISS:        880
LLC PREFETCH  REQUESTED:          0  ISSUED:          0  USEFUL:      26498  USELESS:      90500
LLC AVERAGE MISS LATENCY: 167.458 cycles
Major fault: 0 Minor fault: 6090
CPU 0 L1D next line prefetcher final stats

DRAM Statistics
 CHANNEL 0
 RQ ROW_BUFFER_HIT:      94606  ROW_BUFFER_MISS:     204544
 DBUS_CONGESTED:     231302
 WQ ROW_BUFFER_HIT:      53264  ROW_BUFFER_MISS:     129382  FULL:          0

 AVG_CONGESTED_CYCLE: 6

CPU 0 Branch Prediction Accuracy: 97.8666% MPKI: 3.9013 Average ROB Occupancy at Mispredict: 87.1285

Branch types
NOT_BRANCH: 40856327 81.7127%
BRANCH_DIRECT_JUMP: 484667 0.969334%
BRANCH_INDIRECT: 85086 0.170172%
BRANCH_CONDITIONAL: 6230887 12.4618%
BRANCH_DIRECT_CALL: 1028917 2.05783%
BRANCH_INDIRECT_CALL: 141825 0.28365%
BRANCH_RETURN: 1171985 2.34397%
BRANCH_OTHER: 0 0%

