Initialize SIGNATURE TABLE
ST_SET: 1
ST_WAY: 256
ST_TAG_BIT: 16
ST_TAG_MASK: ffff

Initialize PATTERN TABLE
PT_SET: 512
PT_WAY: 4
SIG_DELTA_BIT: 7
C_SIG_BIT: 4
C_DELTA_BIT: 4

Initialize PREFETCH FILTER
FILTER_SET: 1024

*** ChampSim Multicore Out-of-Order Simulator ***

Warmup Instructions: 50000000
Simulation Instructions: 50000000
Number of CPUs: 1
LLC sets: 2048
LLC ways: 16
Off-chip DRAM Size: 4096 MB Channels: 1 Width: 64-bit Data Rate: 3200 MT/s

CPU 0 runs /home/ykhodke/ChampSim/dpc3_traces/client_001.champsimtrace.xz
LHT KB: 63.12
SCC KB: 1.56
Total KB: 64.69
CPU 0 L1D next line prefetcher
Heartbeat CPU 0 instructions: 10000003 cycles: 3410478 heartbeat IPC: 2.93214 cumulative IPC: 2.93214 (Simulation time: 0 hr 3 min 14 sec) 
Heartbeat CPU 0 instructions: 20000001 cycles: 7118893 heartbeat IPC: 2.69657 cumulative IPC: 2.80943 (Simulation time: 0 hr 6 min 21 sec) 
Heartbeat CPU 0 instructions: 30000001 cycles: 10481901 heartbeat IPC: 2.97353 cumulative IPC: 2.86208 (Simulation time: 0 hr 9 min 14 sec) 
Heartbeat CPU 0 instructions: 40000003 cycles: 14351721 heartbeat IPC: 2.5841 cumulative IPC: 2.78712 (Simulation time: 0 hr 12 min 5 sec) 
Heartbeat CPU 0 instructions: 50000003 cycles: 17648662 heartbeat IPC: 3.03311 cumulative IPC: 2.83308 (Simulation time: 0 hr 14 min 41 sec) 

Warmup complete CPU 0 instructions: 50000003 cycles: 17648662 (Simulation time: 0 hr 14 min 41 sec) 

Heartbeat CPU 0 instructions: 60000000 cycles: 26685940 heartbeat IPC: 1.10653 cumulative IPC: 1.10653 (Simulation time: 0 hr 17 min 29 sec) 
Heartbeat CPU 0 instructions: 70000000 cycles: 33000121 heartbeat IPC: 1.58374 cumulative IPC: 1.30281 (Simulation time: 0 hr 19 min 48 sec) 
Heartbeat CPU 0 instructions: 80000002 cycles: 42319271 heartbeat IPC: 1.07306 cumulative IPC: 1.21602 (Simulation time: 0 hr 22 min 35 sec) 
Heartbeat CPU 0 instructions: 90000000 cycles: 48484251 heartbeat IPC: 1.62206 cumulative IPC: 1.2972 (Simulation time: 0 hr 24 min 45 sec) 
Heartbeat CPU 0 instructions: 100000002 cycles: 57337908 heartbeat IPC: 1.12948 cumulative IPC: 1.25979 (Simulation time: 0 hr 26 min 53 sec) 
Finished CPU 0 instructions: 50000003 cycles: 39689247 cumulative IPC: 1.25979 (Simulation time: 0 hr 26 min 53 sec) 

ChampSim completed all CPUs

Region of Interest Statistics

CPU 0 cumulative IPC: 1.25979 instructions: 50000003 cycles: 39689247
L1D TOTAL     ACCESS:   21241239  HIT:   20404799  MISS:     836440
L1D LOAD      ACCESS:    8822126  HIT:    8427254  MISS:     394872
L1D RFO       ACCESS:    4040568  HIT:    3981482  MISS:      59086
L1D PREFETCH  ACCESS:    8378545  HIT:    7996063  MISS:     382482
L1D WRITEBACK ACCESS:          0  HIT:          0  MISS:          0
L1D PREFETCH  REQUESTED:    8867542  ISSUED:    8558004  USEFUL:     129515  USELESS:     252941
L1D AVERAGE MISS LATENCY: 47.6213 cycles
L1I TOTAL     ACCESS:   15379081  HIT:   14959691  MISS:     419390
L1I LOAD      ACCESS:    8919556  HIT:    8893849  MISS:      25707
L1I RFO       ACCESS:          0  HIT:          0  MISS:          0
L1I PREFETCH  ACCESS:    6459525  HIT:    6065842  MISS:     393683
L1I WRITEBACK ACCESS:          0  HIT:          0  MISS:          0
L1I PREFETCH  REQUESTED:    7225594  ISSUED:    7225594  USEFUL:     275012  USELESS:     118603
L1I AVERAGE MISS LATENCY: 20.6612 cycles
L2C TOTAL     ACCESS:    1941529  HIT:    1632035  MISS:     309494
L2C LOAD      ACCESS:     379909  HIT:     268195  MISS:     111714
L2C RFO       ACCESS:      58318  HIT:      21377  MISS:      36941
L2C PREFETCH  ACCESS:    1313708  HIT:    1153196  MISS:     160512
L2C WRITEBACK ACCESS:     189594  HIT:     189267  MISS:        327
L2C PREFETCH  REQUESTED:    1610971  ISSUED:    1603226  USEFUL:      13897  USELESS:     145456
L2C AVERAGE MISS LATENCY: 104.469 cycles
LLC TOTAL     ACCESS:     836112  HIT:     638710  MISS:     197402
LLC LOAD      ACCESS:     111375  HIT:      70720  MISS:      40655
LLC RFO       ACCESS:      36939  HIT:       8791  MISS:      28148
LLC PREFETCH  ACCESS:     580617  HIT:     452768  MISS:     127849
LLC WRITEBACK ACCESS:     107181  HIT:     106431  MISS:        750
LLC PREFETCH  REQUESTED:          0  ISSUED:          0  USEFUL:      28628  USELESS:     100910
LLC AVERAGE MISS LATENCY: 189.95 cycles
Major fault: 0 Minor fault: 3442
CPU 0 L1D next line prefetcher final stats

DRAM Statistics
 CHANNEL 0
 RQ ROW_BUFFER_HIT:      48567  ROW_BUFFER_MISS:     148078
 DBUS_CONGESTED:     119892
 WQ ROW_BUFFER_HIT:      15631  ROW_BUFFER_MISS:      65584  FULL:          0

 AVG_CONGESTED_CYCLE: 5

CPU 0 Branch Prediction Accuracy: 97.9037% MPKI: 3.63418 Average ROB Occupancy at Mispredict: 86.7196

Branch types
NOT_BRANCH: 41331383 82.6628%
BRANCH_DIRECT_JUMP: 455615 0.91123%
BRANCH_INDIRECT: 20390 0.04078%
BRANCH_CONDITIONAL: 6745374 13.4907%
BRANCH_DIRECT_CALL: 494532 0.989064%
BRANCH_INDIRECT_CALL: 228815 0.45763%
BRANCH_RETURN: 723560 1.44712%
BRANCH_OTHER: 0 0%

