Initialize SIGNATURE TABLE
ST_SET: 1
ST_WAY: 256
ST_TAG_BIT: 16
ST_TAG_MASK: ffff

Initialize PATTERN TABLE
PT_SET: 512
PT_WAY: 4
SIG_DELTA_BIT: 7
C_SIG_BIT: 4
C_DELTA_BIT: 4

Initialize PREFETCH FILTER
FILTER_SET: 1024

*** ChampSim Multicore Out-of-Order Simulator ***

Warmup Instructions: 50000000
Simulation Instructions: 50000000
Number of CPUs: 1
LLC sets: 2048
LLC ways: 16
Off-chip DRAM Size: 4096 MB Channels: 1 Width: 64-bit Data Rate: 3200 MT/s

CPU 0 runs /home/ykhodke/ChampSim/dpc3_traces/client_007.champsimtrace.xz
LHT KB: 63.12
SCC KB: 1.56
Total KB: 64.69
CPU 0 L1D next line prefetcher
Heartbeat CPU 0 instructions: 10000001 cycles: 3642562 heartbeat IPC: 2.74532 cumulative IPC: 2.74532 (Simulation time: 0 hr 3 min 13 sec) 
Heartbeat CPU 0 instructions: 20000003 cycles: 7035014 heartbeat IPC: 2.94772 cumulative IPC: 2.84292 (Simulation time: 0 hr 5 min 45 sec) 
Heartbeat CPU 0 instructions: 30000000 cycles: 10907147 heartbeat IPC: 2.58256 cumulative IPC: 2.75049 (Simulation time: 0 hr 8 min 37 sec) 
Heartbeat CPU 0 instructions: 40000003 cycles: 15067300 heartbeat IPC: 2.40376 cumulative IPC: 2.65476 (Simulation time: 0 hr 11 min 27 sec) 
Heartbeat CPU 0 instructions: 50000002 cycles: 18472752 heartbeat IPC: 2.93647 cumulative IPC: 2.70669 (Simulation time: 0 hr 14 min 14 sec) 

Warmup complete CPU 0 instructions: 50000002 cycles: 18472752 (Simulation time: 0 hr 14 min 14 sec) 

Heartbeat CPU 0 instructions: 60000003 cycles: 25364035 heartbeat IPC: 1.45111 cumulative IPC: 1.45111 (Simulation time: 0 hr 17 min 21 sec) 
Heartbeat CPU 0 instructions: 70000003 cycles: 34225503 heartbeat IPC: 1.12848 cumulative IPC: 1.26962 (Simulation time: 0 hr 20 min 28 sec) 
Heartbeat CPU 0 instructions: 80000002 cycles: 39546363 heartbeat IPC: 1.8794 cumulative IPC: 1.42358 (Simulation time: 0 hr 22 min 38 sec) 
Heartbeat CPU 0 instructions: 90000002 cycles: 47166354 heartbeat IPC: 1.31234 cumulative IPC: 1.39404 (Simulation time: 0 hr 25 min 29 sec) 
Heartbeat CPU 0 instructions: 100000002 cycles: 56113870 heartbeat IPC: 1.11763 cumulative IPC: 1.32833 (Simulation time: 0 hr 27 min 32 sec) 
Finished CPU 0 instructions: 50000000 cycles: 37641118 cumulative IPC: 1.32833 (Simulation time: 0 hr 27 min 32 sec) 

ChampSim completed all CPUs

Region of Interest Statistics

CPU 0 cumulative IPC: 1.32833 instructions: 50000000 cycles: 37641118
L1D TOTAL     ACCESS:   21201122  HIT:   20032145  MISS:    1168977
L1D LOAD      ACCESS:    8371449  HIT:    7832087  MISS:     539362
L1D RFO       ACCESS:    4868859  HIT:    4777822  MISS:      91037
L1D PREFETCH  ACCESS:    7960814  HIT:    7422236  MISS:     538578
L1D WRITEBACK ACCESS:          0  HIT:          0  MISS:          0
L1D PREFETCH  REQUESTED:    8424010  ISSUED:    8180629  USEFUL:     158069  USELESS:     380525
L1D AVERAGE MISS LATENCY: 34.6704 cycles
L1I TOTAL     ACCESS:   16578487  HIT:   15278113  MISS:    1300374
L1I LOAD      ACCESS:    9113989  HIT:    9053122  MISS:      60867
L1I RFO       ACCESS:          0  HIT:          0  MISS:          0
L1I PREFETCH  ACCESS:    7464498  HIT:    6224991  MISS:    1239507
L1I WRITEBACK ACCESS:          0  HIT:          0  MISS:          0
L1I PREFETCH  REQUESTED:    8247003  ISSUED:    8247003  USEFUL:     827630  USELESS:     411866
L1I AVERAGE MISS LATENCY: 15.8066 cycles
L2C TOTAL     ACCESS:    3696642  HIT:    3486195  MISS:     210447
L2C LOAD      ACCESS:     520335  HIT:     452436  MISS:      67899
L2C RFO       ACCESS:      89498  HIT:      47961  MISS:      41537
L2C PREFETCH  ACCESS:    2759144  HIT:    2658248  MISS:     100896
L2C WRITEBACK ACCESS:     327665  HIT:     327550  MISS:        115
L2C PREFETCH  REQUESTED:    2643218  ISSUED:    2635141  USEFUL:       8978  USELESS:      92146
L2C AVERAGE MISS LATENCY: 127.086 cycles
LLC TOTAL     ACCESS:     887858  HIT:     716906  MISS:     170952
LLC LOAD      ACCESS:      67823  HIT:      33531  MISS:      34292
LLC RFO       ACCESS:      41537  HIT:       7092  MISS:      34445
LLC PREFETCH  ACCESS:     704087  HIT:     602153  MISS:     101934
LLC WRITEBACK ACCESS:      74411  HIT:      74130  MISS:        281
LLC PREFETCH  REQUESTED:          0  ISSUED:          0  USEFUL:      17694  USELESS:      85596
LLC AVERAGE MISS LATENCY: 184.474 cycles
Major fault: 0 Minor fault: 4427
CPU 0 L1D next line prefetcher final stats

DRAM Statistics
 CHANNEL 0
 RQ ROW_BUFFER_HIT:      36750  ROW_BUFFER_MISS:     133913
 DBUS_CONGESTED:      95744
 WQ ROW_BUFFER_HIT:      13202  ROW_BUFFER_MISS:      44558  FULL:          0

 AVG_CONGESTED_CYCLE: 5

CPU 0 Branch Prediction Accuracy: 98.8607% MPKI: 1.8623 Average ROB Occupancy at Mispredict: 113.48

Branch types
NOT_BRANCH: 41826773 83.6535%
BRANCH_DIRECT_JUMP: 735330 1.47066%
BRANCH_INDIRECT: 269194 0.538388%
BRANCH_CONDITIONAL: 5957947 11.9159%
BRANCH_DIRECT_CALL: 368758 0.737516%
BRANCH_INDIRECT_CALL: 226975 0.45395%
BRANCH_RETURN: 614696 1.22939%
BRANCH_OTHER: 0 0%

