Initialize SIGNATURE TABLE
ST_SET: 1
ST_WAY: 256
ST_TAG_BIT: 16
ST_TAG_MASK: ffff

Initialize PATTERN TABLE
PT_SET: 512
PT_WAY: 4
SIG_DELTA_BIT: 7
C_SIG_BIT: 4
C_DELTA_BIT: 4

Initialize PREFETCH FILTER
FILTER_SET: 1024

*** ChampSim Multicore Out-of-Order Simulator ***

Warmup Instructions: 50000000
Simulation Instructions: 50000000
Number of CPUs: 1
LLC sets: 2048
LLC ways: 16
Off-chip DRAM Size: 4096 MB Channels: 1 Width: 64-bit Data Rate: 3200 MT/s

CPU 0 runs /home/ykhodke/ChampSim/dpc3_traces/client_006.champsimtrace.xz
LHT KB: 126.25
SCC KB: 1.56
Total KB: 127.81
CPU 0 L1D next line prefetcher
Heartbeat CPU 0 instructions: 10000003 cycles: 4267582 heartbeat IPC: 2.34325 cumulative IPC: 2.34325 (Simulation time: 0 hr 3 min 12 sec) 
Heartbeat CPU 0 instructions: 20000000 cycles: 8308152 heartbeat IPC: 2.4749 cumulative IPC: 2.40727 (Simulation time: 0 hr 6 min 16 sec) 
Heartbeat CPU 0 instructions: 30000003 cycles: 11373075 heartbeat IPC: 3.26273 cumulative IPC: 2.63781 (Simulation time: 0 hr 9 min 14 sec) 
Heartbeat CPU 0 instructions: 40000000 cycles: 14718697 heartbeat IPC: 2.98898 cumulative IPC: 2.71763 (Simulation time: 0 hr 12 min 19 sec) 
Heartbeat CPU 0 instructions: 50000003 cycles: 18823762 heartbeat IPC: 2.43602 cumulative IPC: 2.65622 (Simulation time: 0 hr 15 min 23 sec) 

Warmup complete CPU 0 instructions: 50000003 cycles: 18823762 (Simulation time: 0 hr 15 min 23 sec) 

Heartbeat CPU 0 instructions: 60000001 cycles: 26667398 heartbeat IPC: 1.27492 cumulative IPC: 1.27492 (Simulation time: 0 hr 18 min 6 sec) 
Heartbeat CPU 0 instructions: 70000003 cycles: 36386246 heartbeat IPC: 1.02893 cumulative IPC: 1.13879 (Simulation time: 0 hr 20 min 58 sec) 
Heartbeat CPU 0 instructions: 80000002 cycles: 44666457 heartbeat IPC: 1.2077 cumulative IPC: 1.16087 (Simulation time: 0 hr 23 min 41 sec) 
Heartbeat CPU 0 instructions: 90000003 cycles: 52492911 heartbeat IPC: 1.27772 cumulative IPC: 1.18803 (Simulation time: 0 hr 25 min 46 sec) 
Heartbeat CPU 0 instructions: 100000001 cycles: 60644642 heartbeat IPC: 1.22673 cumulative IPC: 1.19557 (Simulation time: 0 hr 27 min 50 sec) 
Finished CPU 0 instructions: 50000002 cycles: 41820881 cumulative IPC: 1.19557 (Simulation time: 0 hr 27 min 50 sec) 

ChampSim completed all CPUs

Region of Interest Statistics

CPU 0 cumulative IPC: 1.19557 instructions: 50000002 cycles: 41820881
L1D TOTAL     ACCESS:   16599844  HIT:   15872728  MISS:     727116
L1D LOAD      ACCESS:    6368178  HIT:    5961839  MISS:     406339
L1D RFO       ACCESS:    4334203  HIT:    4291575  MISS:      42628
L1D PREFETCH  ACCESS:    5897463  HIT:    5619314  MISS:     278149
L1D WRITEBACK ACCESS:          0  HIT:          0  MISS:          0
L1D PREFETCH  REQUESTED:    6409643  ISSUED:    6229054  USEFUL:     117090  USELESS:     160933
L1D AVERAGE MISS LATENCY: 81.5866 cycles
L1I TOTAL     ACCESS:   16302376  HIT:   15308230  MISS:     994146
L1I LOAD      ACCESS:    8457799  HIT:    8422695  MISS:      35104
L1I RFO       ACCESS:          0  HIT:          0  MISS:          0
L1I PREFETCH  ACCESS:    7844577  HIT:    6885535  MISS:     959042
L1I WRITEBACK ACCESS:          0  HIT:          0  MISS:          0
L1I PREFETCH  REQUESTED:    8577017  ISSUED:    8577009  USEFUL:     676313  USELESS:     282930
L1I AVERAGE MISS LATENCY: 21.5618 cycles
L2C TOTAL     ACCESS:    2432378  HIT:    1886738  MISS:     545640
L2C LOAD      ACCESS:     346454  HIT:     110961  MISS:     235493
L2C RFO       ACCESS:      42357  HIT:      12357  MISS:      30000
L2C PREFETCH  ACCESS:    1867583  HIT:    1588184  MISS:     279399
L2C WRITEBACK ACCESS:     175984  HIT:     175236  MISS:        748
L2C PREFETCH  REQUESTED:    2577378  ISSUED:    2554752  USEFUL:      10239  USELESS:     270321
L2C AVERAGE MISS LATENCY: 116.72 cycles
LLC TOTAL     ACCESS:    1293606  HIT:     914934  MISS:     378672
LLC LOAD      ACCESS:     225212  HIT:     134117  MISS:      91095
LLC RFO       ACCESS:      29999  HIT:       5222  MISS:      24777
LLC PREFETCH  ACCESS:     903995  HIT:     641702  MISS:     262293
LLC WRITEBACK ACCESS:     134400  HIT:     133893  MISS:        507
LLC PREFETCH  REQUESTED:          0  ISSUED:          0  USEFUL:      40963  USELESS:     224817
LLC AVERAGE MISS LATENCY: 200.582 cycles
Major fault: 0 Minor fault: 10542
CPU 0 L1D next line prefetcher final stats

DRAM Statistics
 CHANNEL 0
 RQ ROW_BUFFER_HIT:      99133  ROW_BUFFER_MISS:     279018
 DBUS_CONGESTED:     221045
 WQ ROW_BUFFER_HIT:      21588  ROW_BUFFER_MISS:      92803  FULL:          0

 AVG_CONGESTED_CYCLE: 5

CPU 0 Branch Prediction Accuracy: 98.1683% MPKI: 3.13642 Average ROB Occupancy at Mispredict: 87.1708

Branch types
NOT_BRANCH: 41438070 82.8761%
BRANCH_DIRECT_JUMP: 413829 0.827658%
BRANCH_INDIRECT: 47058 0.094116%
BRANCH_CONDITIONAL: 6843835 13.6877%
BRANCH_DIRECT_CALL: 536885 1.07377%
BRANCH_INDIRECT_CALL: 90642 0.181284%
BRANCH_RETURN: 629329 1.25866%
BRANCH_OTHER: 0 0%

