Initialize SIGNATURE TABLE
ST_SET: 1
ST_WAY: 256
ST_TAG_BIT: 16
ST_TAG_MASK: ffff

Initialize PATTERN TABLE
PT_SET: 512
PT_WAY: 4
SIG_DELTA_BIT: 7
C_SIG_BIT: 4
C_DELTA_BIT: 4

Initialize PREFETCH FILTER
FILTER_SET: 1024

*** ChampSim Multicore Out-of-Order Simulator ***

Warmup Instructions: 50000000
Simulation Instructions: 50000000
Number of CPUs: 1
LLC sets: 2048
LLC ways: 16
Off-chip DRAM Size: 4096 MB Channels: 1 Width: 64-bit Data Rate: 3200 MT/s

CPU 0 runs /home/ykhodke/ChampSim/dpc3_traces/client_002.champsimtrace.xz
LHT KB: 63.12
SCC KB: 1.56
Total KB: 64.69
CPU 0 L1D next line prefetcher
Heartbeat CPU 0 instructions: 10000000 cycles: 3405519 heartbeat IPC: 2.93641 cumulative IPC: 2.93641 (Simulation time: 0 hr 2 min 53 sec) 
Heartbeat CPU 0 instructions: 20000002 cycles: 6861684 heartbeat IPC: 2.89338 cumulative IPC: 2.91474 (Simulation time: 0 hr 5 min 25 sec) 
Heartbeat CPU 0 instructions: 30000001 cycles: 10294921 heartbeat IPC: 2.9127 cumulative IPC: 2.91406 (Simulation time: 0 hr 7 min 54 sec) 
Heartbeat CPU 0 instructions: 40000002 cycles: 13728532 heartbeat IPC: 2.91239 cumulative IPC: 2.91364 (Simulation time: 0 hr 10 min 25 sec) 
Heartbeat CPU 0 instructions: 50000002 cycles: 17169759 heartbeat IPC: 2.90594 cumulative IPC: 2.9121 (Simulation time: 0 hr 12 min 55 sec) 

Warmup complete CPU 0 instructions: 50000002 cycles: 17169759 (Simulation time: 0 hr 12 min 55 sec) 

Heartbeat CPU 0 instructions: 60000002 cycles: 23198050 heartbeat IPC: 1.65884 cumulative IPC: 1.65884 (Simulation time: 0 hr 15 min 20 sec) 
Heartbeat CPU 0 instructions: 70000001 cycles: 29301101 heartbeat IPC: 1.63852 cumulative IPC: 1.64862 (Simulation time: 0 hr 17 min 50 sec) 
Heartbeat CPU 0 instructions: 80000003 cycles: 35257993 heartbeat IPC: 1.67873 cumulative IPC: 1.65854 (Simulation time: 0 hr 20 min 23 sec) 
Heartbeat CPU 0 instructions: 90000000 cycles: 41795434 heartbeat IPC: 1.52965 cumulative IPC: 1.62432 (Simulation time: 0 hr 23 min 2 sec) 
Heartbeat CPU 0 instructions: 100000003 cycles: 47817629 heartbeat IPC: 1.66052 cumulative IPC: 1.63143 (Simulation time: 0 hr 25 min 37 sec) 
Finished CPU 0 instructions: 50000001 cycles: 30647870 cumulative IPC: 1.63143 (Simulation time: 0 hr 25 min 37 sec) 

ChampSim completed all CPUs

Region of Interest Statistics

CPU 0 cumulative IPC: 1.63143 instructions: 50000001 cycles: 30647870
L1D TOTAL     ACCESS:   19166157  HIT:   18826846  MISS:     339311
L1D LOAD      ACCESS:    6507139  HIT:    6390137  MISS:     117002
L1D RFO       ACCESS:    6415868  HIT:    6325970  MISS:      89898
L1D PREFETCH  ACCESS:    6243150  HIT:    6110739  MISS:     132411
L1D WRITEBACK ACCESS:          0  HIT:          0  MISS:          0
L1D PREFETCH  REQUESTED:    6517783  ISSUED:    6315305  USEFUL:      53573  USELESS:      78979
L1D AVERAGE MISS LATENCY: 49.8355 cycles
L1I TOTAL     ACCESS:   20689969  HIT:   19507160  MISS:    1182809
L1I LOAD      ACCESS:    9525051  HIT:    9345887  MISS:     179164
L1I RFO       ACCESS:          0  HIT:          0  MISS:          0
L1I PREFETCH  ACCESS:   11164918  HIT:   10161273  MISS:    1003645
L1I WRITEBACK ACCESS:          0  HIT:          0  MISS:          0
L1I PREFETCH  REQUESTED:   13015810  ISSUED:   13015810  USEFUL:     541577  USELESS:     462011
L1I AVERAGE MISS LATENCY: 16.138 cycles
L2C TOTAL     ACCESS:    2080301  HIT:    1803040  MISS:     277261
L2C LOAD      ACCESS:     144403  HIT:     100283  MISS:      44120
L2C RFO       ACCESS:      88751  HIT:      20111  MISS:      68640
L2C PREFETCH  ACCESS:    1721661  HIT:    1557863  MISS:     163798
L2C WRITEBACK ACCESS:     125486  HIT:     124783  MISS:        703
L2C PREFETCH  REQUESTED:     989853  ISSUED:     989570  USEFUL:      11989  USELESS:     150303
L2C AVERAGE MISS LATENCY: 62.4691 cycles
LLC TOTAL     ACCESS:     584730  HIT:     519603  MISS:      65127
LLC LOAD      ACCESS:      44118  HIT:      38656  MISS:       5462
LLC RFO       ACCESS:      68638  HIT:      38668  MISS:      29970
LLC PREFETCH  ACCESS:     383911  HIT:     354392  MISS:      29519
LLC WRITEBACK ACCESS:      88063  HIT:      87887  MISS:        176
LLC PREFETCH  REQUESTED:          0  ISSUED:          0  USEFUL:       4088  USELESS:      23860
LLC AVERAGE MISS LATENCY: 178.287 cycles
Major fault: 0 Minor fault: 3114
CPU 0 L1D next line prefetcher final stats

DRAM Statistics
 CHANNEL 0
 RQ ROW_BUFFER_HIT:      22726  ROW_BUFFER_MISS:      42225
 DBUS_CONGESTED:      46147
 WQ ROW_BUFFER_HIT:       8791  ROW_BUFFER_MISS:      28853  FULL:          0

 AVG_CONGESTED_CYCLE: 6

CPU 0 Branch Prediction Accuracy: 99.2117% MPKI: 1.49752 Average ROB Occupancy at Mispredict: 110.217

Branch types
NOT_BRANCH: 40501616 81.0032%
BRANCH_DIRECT_JUMP: 517397 1.03479%
BRANCH_INDIRECT: 112348 0.224696%
BRANCH_CONDITIONAL: 6698737 13.3975%
BRANCH_DIRECT_CALL: 960974 1.92195%
BRANCH_INDIRECT_CALL: 123707 0.247414%
BRANCH_RETURN: 1084929 2.16986%
BRANCH_OTHER: 0 0%

