Initialize SIGNATURE TABLE
ST_SET: 1
ST_WAY: 256
ST_TAG_BIT: 16
ST_TAG_MASK: ffff

Initialize PATTERN TABLE
PT_SET: 512
PT_WAY: 4
SIG_DELTA_BIT: 7
C_SIG_BIT: 4
C_DELTA_BIT: 4

Initialize PREFETCH FILTER
FILTER_SET: 1024

*** ChampSim Multicore Out-of-Order Simulator ***

Warmup Instructions: 50000000
Simulation Instructions: 50000000
Number of CPUs: 1
LLC sets: 2048
LLC ways: 16
Off-chip DRAM Size: 4096 MB Channels: 1 Width: 64-bit Data Rate: 3200 MT/s

CPU 0 runs /home/ykhodke/ChampSim/dpc3_traces/client_002.champsimtrace.xz
L1I D-JOLT instruction prefetcher has been constructed!
CPU 0 L1D next line prefetcher
Heartbeat CPU 0 instructions: 10000000 cycles: 3404705 heartbeat IPC: 2.93711 cumulative IPC: 2.93711 (Simulation time: 0 hr 3 min 11 sec) 
Heartbeat CPU 0 instructions: 20000002 cycles: 6859939 heartbeat IPC: 2.89416 cumulative IPC: 2.91548 (Simulation time: 0 hr 6 min 23 sec) 
Heartbeat CPU 0 instructions: 30000001 cycles: 10292550 heartbeat IPC: 2.91323 cumulative IPC: 2.91473 (Simulation time: 0 hr 9 min 52 sec) 
Heartbeat CPU 0 instructions: 40000002 cycles: 13725015 heartbeat IPC: 2.91336 cumulative IPC: 2.91439 (Simulation time: 0 hr 13 min 14 sec) 
Heartbeat CPU 0 instructions: 50000002 cycles: 17165427 heartbeat IPC: 2.90663 cumulative IPC: 2.91283 (Simulation time: 0 hr 16 min 37 sec) 

Warmup complete CPU 0 instructions: 50000002 cycles: 17165427 (Simulation time: 0 hr 16 min 37 sec) 

Heartbeat CPU 0 instructions: 60000002 cycles: 23080006 heartbeat IPC: 1.69074 cumulative IPC: 1.69074 (Simulation time: 0 hr 19 min 48 sec) 
Heartbeat CPU 0 instructions: 70000001 cycles: 29046866 heartbeat IPC: 1.67592 cumulative IPC: 1.6833 (Simulation time: 0 hr 23 min 1 sec) 
Heartbeat CPU 0 instructions: 80000002 cycles: 34896550 heartbeat IPC: 1.70949 cumulative IPC: 1.69194 (Simulation time: 0 hr 25 min 33 sec) 
Heartbeat CPU 0 instructions: 90000000 cycles: 41310732 heartbeat IPC: 1.55904 cumulative IPC: 1.65664 (Simulation time: 0 hr 27 min 42 sec) 
Heartbeat CPU 0 instructions: 100000003 cycles: 47213972 heartbeat IPC: 1.69399 cumulative IPC: 1.66397 (Simulation time: 0 hr 29 min 19 sec) 
Finished CPU 0 instructions: 50000001 cycles: 30048545 cumulative IPC: 1.66397 (Simulation time: 0 hr 29 min 19 sec) 

ChampSim completed all CPUs

Region of Interest Statistics

CPU 0 cumulative IPC: 1.66397 instructions: 50000001 cycles: 30048545
L1D TOTAL     ACCESS:   19058163  HIT:   18718969  MISS:     339194
L1D LOAD      ACCESS:    6450658  HIT:    6333257  MISS:     117401
L1D RFO       ACCESS:    6417547  HIT:    6327663  MISS:      89884
L1D PREFETCH  ACCESS:    6189958  HIT:    6058049  MISS:     131909
L1D WRITEBACK ACCESS:          0  HIT:          0  MISS:          0
L1D PREFETCH  REQUESTED:    6460927  ISSUED:    6260070  USEFUL:      53126  USELESS:      78925
L1D AVERAGE MISS LATENCY: 49.9537 cycles
L1I TOTAL     ACCESS:   17652448  HIT:   15848896  MISS:    1803552
L1I LOAD      ACCESS:    9563159  HIT:    9534121  MISS:      29038
L1I RFO       ACCESS:          0  HIT:          0  MISS:          0
L1I PREFETCH  ACCESS:    8089289  HIT:    6314775  MISS:    1774514
L1I WRITEBACK ACCESS:          0  HIT:          0  MISS:          0
L1I PREFETCH  REQUESTED:    8774720  ISSUED:    8451148  USEFUL:     953734  USELESS:     820729
L1I AVERAGE MISS LATENCY: 16.4574 cycles
L2C TOTAL     ACCESS:    2990939  HIT:    2739012  MISS:     251927
L2C LOAD      ACCESS:     124682  HIT:      85798  MISS:      38884
L2C RFO       ACCESS:      88842  HIT:      22417  MISS:      66425
L2C PREFETCH  ACCESS:    2651914  HIT:    2505788  MISS:     146126
L2C WRITEBACK ACCESS:     125501  HIT:     125009  MISS:        492
L2C PREFETCH  REQUESTED:    1678430  ISSUED:    1677972  USEFUL:       7922  USELESS:     137411
L2C AVERAGE MISS LATENCY: 63.7384 cycles
LLC TOTAL     ACCESS:     709138  HIT:     643196  MISS:      65942
LLC LOAD      ACCESS:      38879  HIT:      32960  MISS:       5919
LLC RFO       ACCESS:      66422  HIT:      36697  MISS:      29725
LLC PREFETCH  ACCESS:     518962  HIT:     488896  MISS:      30066
LLC WRITEBACK ACCESS:      84875  HIT:      84643  MISS:        232
LLC PREFETCH  REQUESTED:          0  ISSUED:          0  USEFUL:       5426  USELESS:      23994
LLC AVERAGE MISS LATENCY: 180.465 cycles
Major fault: 0 Minor fault: 3093
CPU 0 L1D next line prefetcher final stats

DRAM Statistics
 CHANNEL 0
 RQ ROW_BUFFER_HIT:      22228  ROW_BUFFER_MISS:      43482
 DBUS_CONGESTED:      42693
 WQ ROW_BUFFER_HIT:       8850  ROW_BUFFER_MISS:      28033  FULL:          0

 AVG_CONGESTED_CYCLE: 6

CPU 0 Branch Prediction Accuracy: 99.2117% MPKI: 1.49752 Average ROB Occupancy at Mispredict: 121.551

Branch types
NOT_BRANCH: 40501616 81.0032%
BRANCH_DIRECT_JUMP: 517397 1.03479%
BRANCH_INDIRECT: 112348 0.224696%
BRANCH_CONDITIONAL: 6698737 13.3975%
BRANCH_DIRECT_CALL: 960974 1.92195%
BRANCH_INDIRECT_CALL: 123707 0.247414%
BRANCH_RETURN: 1084929 2.16986%
BRANCH_OTHER: 0 0%

