Initialize SIGNATURE TABLE
ST_SET: 1
ST_WAY: 256
ST_TAG_BIT: 16
ST_TAG_MASK: ffff

Initialize PATTERN TABLE
PT_SET: 512
PT_WAY: 4
SIG_DELTA_BIT: 7
C_SIG_BIT: 4
C_DELTA_BIT: 4

Initialize PREFETCH FILTER
FILTER_SET: 1024

*** ChampSim Multicore Out-of-Order Simulator ***

Warmup Instructions: 50000000
Simulation Instructions: 50000000
Number of CPUs: 1
LLC sets: 2048
LLC ways: 16
Off-chip DRAM Size: 4096 MB Channels: 1 Width: 64-bit Data Rate: 3200 MT/s

CPU 0 runs /home/ykhodke/ChampSim/dpc3_traces/client_002.champsimtrace.xz
L1I D-JOLT instruction prefetcher has been constructed!
CPU 0 L1D next line prefetcher
Heartbeat CPU 0 instructions: 10000000 cycles: 3404848 heartbeat IPC: 2.93699 cumulative IPC: 2.93699 (Simulation time: 0 hr 3 min 8 sec) 
Heartbeat CPU 0 instructions: 20000002 cycles: 6860144 heartbeat IPC: 2.89411 cumulative IPC: 2.91539 (Simulation time: 0 hr 6 min 22 sec) 
Heartbeat CPU 0 instructions: 30000001 cycles: 10292728 heartbeat IPC: 2.91326 cumulative IPC: 2.91468 (Simulation time: 0 hr 9 min 11 sec) 
Heartbeat CPU 0 instructions: 40000002 cycles: 13725202 heartbeat IPC: 2.91335 cumulative IPC: 2.91435 (Simulation time: 0 hr 12 min 20 sec) 
Heartbeat CPU 0 instructions: 50000002 cycles: 17165842 heartbeat IPC: 2.90644 cumulative IPC: 2.91276 (Simulation time: 0 hr 15 min 28 sec) 

Warmup complete CPU 0 instructions: 50000002 cycles: 17165842 (Simulation time: 0 hr 15 min 28 sec) 

Heartbeat CPU 0 instructions: 60000002 cycles: 23100869 heartbeat IPC: 1.68491 cumulative IPC: 1.68491 (Simulation time: 0 hr 18 min 18 sec) 
Heartbeat CPU 0 instructions: 70000001 cycles: 29086268 heartbeat IPC: 1.67073 cumulative IPC: 1.67779 (Simulation time: 0 hr 21 min 11 sec) 
Heartbeat CPU 0 instructions: 80000002 cycles: 34952410 heartbeat IPC: 1.7047 cumulative IPC: 1.68667 (Simulation time: 0 hr 23 min 51 sec) 
Heartbeat CPU 0 instructions: 90000000 cycles: 41404229 heartbeat IPC: 1.54995 cumulative IPC: 1.65027 (Simulation time: 0 hr 26 min 1 sec) 
Heartbeat CPU 0 instructions: 100000003 cycles: 47324024 heartbeat IPC: 1.68925 cumulative IPC: 1.65792 (Simulation time: 0 hr 27 min 56 sec) 
Finished CPU 0 instructions: 50000001 cycles: 30158182 cumulative IPC: 1.65792 (Simulation time: 0 hr 27 min 56 sec) 

ChampSim completed all CPUs

Region of Interest Statistics

CPU 0 cumulative IPC: 1.65792 instructions: 50000001 cycles: 30158182
L1D TOTAL     ACCESS:   19073160  HIT:   18733924  MISS:     339236
L1D LOAD      ACCESS:    6458022  HIT:    6340514  MISS:     117508
L1D RFO       ACCESS:    6418128  HIT:    6328194  MISS:      89934
L1D PREFETCH  ACCESS:    6197010  HIT:    6065216  MISS:     131794
L1D WRITEBACK ACCESS:          0  HIT:          0  MISS:          0
L1D PREFETCH  REQUESTED:    6468280  ISSUED:    6267342  USEFUL:      53012  USELESS:      78923
L1D AVERAGE MISS LATENCY: 49.1095 cycles
L1I TOTAL     ACCESS:   15460452  HIT:   13850856  MISS:    1609596
L1I LOAD      ACCESS:    9552003  HIT:    9510784  MISS:      41219
L1I RFO       ACCESS:          0  HIT:          0  MISS:          0
L1I PREFETCH  ACCESS:    5908449  HIT:    4340072  MISS:    1568377
L1I WRITEBACK ACCESS:          0  HIT:          0  MISS:          0
L1I PREFETCH  REQUESTED:    6186475  ISSUED:    6089981  USEFUL:     890895  USELESS:     677489
L1I AVERAGE MISS LATENCY: 16.6488 cycles
L2C TOTAL     ACCESS:    2727763  HIT:    2474545  MISS:     253218
L2C LOAD      ACCESS:     135994  HIT:      93363  MISS:      42631
L2C RFO       ACCESS:      88832  HIT:      22668  MISS:      66164
L2C PREFETCH  ACCESS:    2377429  HIT:    2233399  MISS:     144030
L2C WRITEBACK ACCESS:     125508  HIT:     125115  MISS:        393
L2C PREFETCH  REQUESTED:    1464182  ISSUED:    1463846  USEFUL:      13090  USELESS:     130438
L2C AVERAGE MISS LATENCY: 62.5536 cycles
LLC TOTAL     ACCESS:     665772  HIT:     594393  MISS:      71379
LLC LOAD      ACCESS:      42626  HIT:      36354  MISS:       6272
LLC RFO       ACCESS:      66164  HIT:      36434  MISS:      29730
LLC PREFETCH  ACCESS:     472576  HIT:     437496  MISS:      35080
LLC WRITEBACK ACCESS:      84406  HIT:      84109  MISS:        297
LLC PREFETCH  REQUESTED:          0  ISSUED:          0  USEFUL:       5918  USELESS:      29188
LLC AVERAGE MISS LATENCY: 174.983 cycles
Major fault: 0 Minor fault: 3093
CPU 0 L1D next line prefetcher final stats

DRAM Statistics
 CHANNEL 0
 RQ ROW_BUFFER_HIT:      23123  ROW_BUFFER_MISS:      47959
 DBUS_CONGESTED:      42173
 WQ ROW_BUFFER_HIT:       8727  ROW_BUFFER_MISS:      27966  FULL:          0

 AVG_CONGESTED_CYCLE: 6

CPU 0 Branch Prediction Accuracy: 99.2117% MPKI: 1.49752 Average ROB Occupancy at Mispredict: 118.992

Branch types
NOT_BRANCH: 40501616 81.0032%
BRANCH_DIRECT_JUMP: 517397 1.03479%
BRANCH_INDIRECT: 112348 0.224696%
BRANCH_CONDITIONAL: 6698737 13.3975%
BRANCH_DIRECT_CALL: 960974 1.92195%
BRANCH_INDIRECT_CALL: 123707 0.247414%
BRANCH_RETURN: 1084929 2.16986%
BRANCH_OTHER: 0 0%

