Initialize SIGNATURE TABLE
ST_SET: 1
ST_WAY: 256
ST_TAG_BIT: 16
ST_TAG_MASK: ffff

Initialize PATTERN TABLE
PT_SET: 512
PT_WAY: 4
SIG_DELTA_BIT: 7
C_SIG_BIT: 4
C_DELTA_BIT: 4

Initialize PREFETCH FILTER
FILTER_SET: 1024

*** ChampSim Multicore Out-of-Order Simulator ***

Warmup Instructions: 50000000
Simulation Instructions: 50000000
Number of CPUs: 1
LLC sets: 2048
LLC ways: 16
Off-chip DRAM Size: 4096 MB Channels: 1 Width: 64-bit Data Rate: 3200 MT/s

CPU 0 runs /home/ykhodke/ChampSim/dpc3_traces/client_003.champsimtrace.xz
L1I D-JOLT instruction prefetcher has been constructed!
CPU 0 L1D next line prefetcher
Heartbeat CPU 0 instructions: 10000000 cycles: 3478472 heartbeat IPC: 2.87483 cumulative IPC: 2.87483 (Simulation time: 0 hr 3 min 30 sec) 
Heartbeat CPU 0 instructions: 20000002 cycles: 6932693 heartbeat IPC: 2.89501 cumulative IPC: 2.88488 (Simulation time: 0 hr 6 min 40 sec) 
Heartbeat CPU 0 instructions: 30000003 cycles: 10493665 heartbeat IPC: 2.80822 cumulative IPC: 2.85887 (Simulation time: 0 hr 9 min 52 sec) 
Heartbeat CPU 0 instructions: 40000001 cycles: 14110145 heartbeat IPC: 2.76512 cumulative IPC: 2.83484 (Simulation time: 0 hr 13 min 31 sec) 
Heartbeat CPU 0 instructions: 50000003 cycles: 17655231 heartbeat IPC: 2.82081 cumulative IPC: 2.83202 (Simulation time: 0 hr 16 min 43 sec) 

Warmup complete CPU 0 instructions: 50000003 cycles: 17655231 (Simulation time: 0 hr 16 min 43 sec) 

Heartbeat CPU 0 instructions: 60000002 cycles: 23906670 heartbeat IPC: 1.59963 cumulative IPC: 1.59963 (Simulation time: 0 hr 19 min 33 sec) 
Heartbeat CPU 0 instructions: 70000001 cycles: 29977196 heartbeat IPC: 1.6473 cumulative IPC: 1.62312 (Simulation time: 0 hr 22 min 22 sec) 
Heartbeat CPU 0 instructions: 80000000 cycles: 36890642 heartbeat IPC: 1.44646 cumulative IPC: 1.55962 (Simulation time: 0 hr 25 min 7 sec) 
Heartbeat CPU 0 instructions: 90000000 cycles: 45654082 heartbeat IPC: 1.1411 cumulative IPC: 1.42863 (Simulation time: 0 hr 26 min 56 sec) 
Heartbeat CPU 0 instructions: 100000003 cycles: 56579935 heartbeat IPC: 0.915261 cumulative IPC: 1.28453 (Simulation time: 0 hr 28 min 33 sec) 
Finished CPU 0 instructions: 50000000 cycles: 38924704 cumulative IPC: 1.28453 (Simulation time: 0 hr 28 min 33 sec) 

ChampSim completed all CPUs

Region of Interest Statistics

CPU 0 cumulative IPC: 1.28453 instructions: 50000000 cycles: 38924704
L1D TOTAL     ACCESS:   17619649  HIT:   17123699  MISS:     495950
L1D LOAD      ACCESS:    6030030  HIT:    5905787  MISS:     124243
L1D RFO       ACCESS:    5942267  HIT:    5707755  MISS:     234512
L1D PREFETCH  ACCESS:    5647352  HIT:    5510157  MISS:     137195
L1D WRITEBACK ACCESS:          0  HIT:          0  MISS:          0
L1D PREFETCH  REQUESTED:    6071908  ISSUED:    5931160  USEFUL:      69358  USELESS:      67885
L1D AVERAGE MISS LATENCY: 123.89 cycles
L1I TOTAL     ACCESS:   16814715  HIT:   14554423  MISS:    2260292
L1I LOAD      ACCESS:    9506991  HIT:    9433289  MISS:      73702
L1I RFO       ACCESS:          0  HIT:          0  MISS:          0
L1I PREFETCH  ACCESS:    7307724  HIT:    5121134  MISS:    2186590
L1I WRITEBACK ACCESS:          0  HIT:          0  MISS:          0
L1I PREFETCH  REQUESTED:    7906547  ISSUED:    7539820  USEFUL:     816787  USELESS:    1369890
L1I AVERAGE MISS LATENCY: 16.7223 cycles
L2C TOTAL     ACCESS:    3885829  HIT:    3469325  MISS:     416504
L2C LOAD      ACCESS:     150666  HIT:     105167  MISS:      45499
L2C RFO       ACCESS:     232345  HIT:      23896  MISS:     208449
L2C PREFETCH  ACCESS:    3233519  HIT:    3072195  MISS:     161324
L2C WRITEBACK ACCESS:     269299  HIT:     268067  MISS:       1232
L2C PREFETCH  REQUESTED:    1901128  ISSUED:    1900953  USEFUL:      14992  USELESS:     146907
L2C AVERAGE MISS LATENCY: 160.442 cycles
LLC TOTAL     ACCESS:    1053426  HIT:     761750  MISS:     291676
LLC LOAD      ACCESS:      45434  HIT:      31252  MISS:      14182
LLC RFO       ACCESS:     208446  HIT:      34750  MISS:     173696
LLC PREFETCH  ACCESS:     573013  HIT:     469629  MISS:     103384
LLC WRITEBACK ACCESS:     226533  HIT:     226119  MISS:        414
LLC PREFETCH  REQUESTED:          0  ISSUED:          0  USEFUL:      11404  USELESS:      93104
LLC AVERAGE MISS LATENCY: 231.196 cycles
Major fault: 0 Minor fault: 5045
CPU 0 L1D next line prefetcher final stats

DRAM Statistics
 CHANNEL 0
 RQ ROW_BUFFER_HIT:      99654  ROW_BUFFER_MISS:     191604
 DBUS_CONGESTED:     258038
 WQ ROW_BUFFER_HIT:      57832  ROW_BUFFER_MISS:     122014  FULL:          0

 AVG_CONGESTED_CYCLE: 6

CPU 0 Branch Prediction Accuracy: 98.6631% MPKI: 2.66884 Average ROB Occupancy at Mispredict: 78.782

Branch types
NOT_BRANCH: 40018772 80.0375%
BRANCH_DIRECT_JUMP: 370861 0.741722%
BRANCH_INDIRECT: 83252 0.166504%
BRANCH_CONDITIONAL: 7877435 15.7549%
BRANCH_DIRECT_CALL: 722315 1.44463%
BRANCH_INDIRECT_CALL: 101901 0.203802%
BRANCH_RETURN: 825355 1.65071%
BRANCH_OTHER: 0 0%

