Initialize SIGNATURE TABLE
ST_SET: 1
ST_WAY: 256
ST_TAG_BIT: 16
ST_TAG_MASK: ffff

Initialize PATTERN TABLE
PT_SET: 512
PT_WAY: 4
SIG_DELTA_BIT: 7
C_SIG_BIT: 4
C_DELTA_BIT: 4

Initialize PREFETCH FILTER
FILTER_SET: 1024

*** ChampSim Multicore Out-of-Order Simulator ***

Warmup Instructions: 50000000
Simulation Instructions: 50000000
Number of CPUs: 1
LLC sets: 2048
LLC ways: 16
Off-chip DRAM Size: 4096 MB Channels: 1 Width: 64-bit Data Rate: 3200 MT/s

CPU 0 runs /home/ykhodke/ChampSim/dpc3_traces/client_003.champsimtrace.xz
LHT KB: 63.12
SCC KB: 1.56
Total KB: 64.69
CPU 0 L1D next line prefetcher
Heartbeat CPU 0 instructions: 10000000 cycles: 3478506 heartbeat IPC: 2.8748 cumulative IPC: 2.8748 (Simulation time: 0 hr 3 min 21 sec) 
Heartbeat CPU 0 instructions: 20000002 cycles: 6932969 heartbeat IPC: 2.89481 cumulative IPC: 2.88477 (Simulation time: 0 hr 6 min 25 sec) 
Heartbeat CPU 0 instructions: 30000003 cycles: 10494020 heartbeat IPC: 2.80816 cumulative IPC: 2.85877 (Simulation time: 0 hr 9 min 35 sec) 
Heartbeat CPU 0 instructions: 40000001 cycles: 14110650 heartbeat IPC: 2.765 cumulative IPC: 2.83474 (Simulation time: 0 hr 13 min 42 sec) 
Heartbeat CPU 0 instructions: 50000003 cycles: 17655934 heartbeat IPC: 2.82065 cumulative IPC: 2.83191 (Simulation time: 0 hr 17 min 10 sec) 

Warmup complete CPU 0 instructions: 50000003 cycles: 17655934 (Simulation time: 0 hr 17 min 10 sec) 

Heartbeat CPU 0 instructions: 60000002 cycles: 23956465 heartbeat IPC: 1.58717 cumulative IPC: 1.58717 (Simulation time: 0 hr 20 min 4 sec) 
Heartbeat CPU 0 instructions: 70000001 cycles: 30043125 heartbeat IPC: 1.64294 cumulative IPC: 1.61457 (Simulation time: 0 hr 22 min 59 sec) 
Heartbeat CPU 0 instructions: 80000001 cycles: 36905962 heartbeat IPC: 1.45712 cumulative IPC: 1.55844 (Simulation time: 0 hr 26 min 13 sec) 
Heartbeat CPU 0 instructions: 90000000 cycles: 45900934 heartbeat IPC: 1.11173 cumulative IPC: 1.41618 (Simulation time: 0 hr 27 min 52 sec) 
Heartbeat CPU 0 instructions: 100000003 cycles: 56754160 heartbeat IPC: 0.921385 cumulative IPC: 1.27883 (Simulation time: 0 hr 29 min 12 sec) 
Finished CPU 0 instructions: 50000000 cycles: 39098226 cumulative IPC: 1.27883 (Simulation time: 0 hr 29 min 12 sec) 

ChampSim completed all CPUs

Region of Interest Statistics

CPU 0 cumulative IPC: 1.27883 instructions: 50000000 cycles: 39098226
L1D TOTAL     ACCESS:   17649682  HIT:   17153708  MISS:     495974
L1D LOAD      ACCESS:    6045779  HIT:    5919327  MISS:     126452
L1D RFO       ACCESS:    5948266  HIT:    5713803  MISS:     234463
L1D PREFETCH  ACCESS:    5655637  HIT:    5520578  MISS:     135059
L1D WRITEBACK ACCESS:          0  HIT:          0  MISS:          0
L1D PREFETCH  REQUESTED:    6086874  ISSUED:    5945721  USEFUL:      67176  USELESS:      67931
L1D AVERAGE MISS LATENCY: 123.611 cycles
L1I TOTAL     ACCESS:   20313365  HIT:   19320231  MISS:     993134
L1I LOAD      ACCESS:    9445066  HIT:    9313957  MISS:     131109
L1I RFO       ACCESS:          0  HIT:          0  MISS:          0
L1I PREFETCH  ACCESS:   10868299  HIT:   10006274  MISS:     862025
L1I WRITEBACK ACCESS:          0  HIT:          0  MISS:          0
L1I PREFETCH  REQUESTED:   12656730  ISSUED:   12656725  USEFUL:     449510  USELESS:     412593
L1I AVERAGE MISS LATENCY: 18.9991 cycles
L2C TOTAL     ACCESS:    2173173  HIT:    1758144  MISS:     415029
L2C LOAD      ACCESS:     121935  HIT:      83535  MISS:      38400
L2C RFO       ACCESS:     232346  HIT:      25423  MISS:     206923
L2C PREFETCH  ACCESS:    1549607  HIT:    1381073  MISS:     168534
L2C WRITEBACK ACCESS:     269285  HIT:     268113  MISS:       1172
L2C PREFETCH  REQUESTED:    1107319  ISSUED:    1106989  USEFUL:      10735  USELESS:     157791
L2C AVERAGE MISS LATENCY: 165.991 cycles
LLC TOTAL     ACCESS:     949184  HIT:     657686  MISS:     291498
LLC LOAD      ACCESS:      38310  HIT:      27042  MISS:      11268
LLC RFO       ACCESS:     206909  HIT:      34158  MISS:     172751
LLC PREFETCH  ACCESS:     479355  HIT:     372278  MISS:     107077
LLC WRITEBACK ACCESS:     224610  HIT:     224208  MISS:        402
LLC PREFETCH  REQUESTED:          0  ISSUED:          0  USEFUL:       8224  USELESS:      99305
LLC AVERAGE MISS LATENCY: 232.393 cycles
Major fault: 0 Minor fault: 5085
CPU 0 L1D next line prefetcher final stats

DRAM Statistics
 CHANNEL 0
 RQ ROW_BUFFER_HIT:     102125  ROW_BUFFER_MISS:     188963
 DBUS_CONGESTED:     262713
 WQ ROW_BUFFER_HIT:      58976  ROW_BUFFER_MISS:     120260  FULL:          0

 AVG_CONGESTED_CYCLE: 6

CPU 0 Branch Prediction Accuracy: 98.6631% MPKI: 2.66884 Average ROB Occupancy at Mispredict: 77.7365

Branch types
NOT_BRANCH: 40018786 80.0376%
BRANCH_DIRECT_JUMP: 370861 0.741722%
BRANCH_INDIRECT: 83253 0.166506%
BRANCH_CONDITIONAL: 7877437 15.7549%
BRANCH_DIRECT_CALL: 722316 1.44463%
BRANCH_INDIRECT_CALL: 101901 0.203802%
BRANCH_RETURN: 825355 1.65071%
BRANCH_OTHER: 0 0%

