Initialize SIGNATURE TABLE
ST_SET: 1
ST_WAY: 256
ST_TAG_BIT: 16
ST_TAG_MASK: ffff

Initialize PATTERN TABLE
PT_SET: 512
PT_WAY: 4
SIG_DELTA_BIT: 7
C_SIG_BIT: 4
C_DELTA_BIT: 4

Initialize PREFETCH FILTER
FILTER_SET: 1024

*** ChampSim Multicore Out-of-Order Simulator ***

Warmup Instructions: 50000000
Simulation Instructions: 50000000
Number of CPUs: 1
LLC sets: 2048
LLC ways: 16
Off-chip DRAM Size: 4096 MB Channels: 1 Width: 64-bit Data Rate: 3200 MT/s

CPU 0 runs /home/ykhodke/ChampSim/dpc3_traces/client_008.champsimtrace.xz
L1I D-JOLT instruction prefetcher has been constructed!
CPU 0 L1D next line prefetcher
Heartbeat CPU 0 instructions: 10000001 cycles: 3754913 heartbeat IPC: 2.66318 cumulative IPC: 2.66318 (Simulation time: 0 hr 3 min 40 sec) 
Heartbeat CPU 0 instructions: 20000001 cycles: 7531998 heartbeat IPC: 2.64754 cumulative IPC: 2.65534 (Simulation time: 0 hr 6 min 51 sec) 
Heartbeat CPU 0 instructions: 30000000 cycles: 11260487 heartbeat IPC: 2.68205 cumulative IPC: 2.66418 (Simulation time: 0 hr 10 min 10 sec) 
Heartbeat CPU 0 instructions: 40000002 cycles: 15057586 heartbeat IPC: 2.63359 cumulative IPC: 2.65647 (Simulation time: 0 hr 13 min 48 sec) 
Heartbeat CPU 0 instructions: 50000003 cycles: 18852722 heartbeat IPC: 2.63495 cumulative IPC: 2.65214 (Simulation time: 0 hr 17 min 5 sec) 

Warmup complete CPU 0 instructions: 50000003 cycles: 18852722 (Simulation time: 0 hr 17 min 5 sec) 

Heartbeat CPU 0 instructions: 60000000 cycles: 26980302 heartbeat IPC: 1.23038 cumulative IPC: 1.23038 (Simulation time: 0 hr 20 min 28 sec) 
Heartbeat CPU 0 instructions: 70000000 cycles: 34910530 heartbeat IPC: 1.261 cumulative IPC: 1.2455 (Simulation time: 0 hr 24 min 6 sec) 
Heartbeat CPU 0 instructions: 80000000 cycles: 43982079 heartbeat IPC: 1.10235 cumulative IPC: 1.19382 (Simulation time: 0 hr 26 min 39 sec) 
Heartbeat CPU 0 instructions: 90000001 cycles: 51341929 heartbeat IPC: 1.35872 cumulative IPC: 1.23118 (Simulation time: 0 hr 28 min 25 sec) 
Heartbeat CPU 0 instructions: 100000001 cycles: 59397799 heartbeat IPC: 1.24133 cumulative IPC: 1.2332 (Simulation time: 0 hr 29 min 23 sec) 
Finished CPU 0 instructions: 50000002 cycles: 40545078 cumulative IPC: 1.2332 (Simulation time: 0 hr 29 min 23 sec) 

ChampSim completed all CPUs

Region of Interest Statistics

CPU 0 cumulative IPC: 1.2332 instructions: 50000002 cycles: 40545078
L1D TOTAL     ACCESS:   20471049  HIT:   18842644  MISS:    1628405
L1D LOAD      ACCESS:    8058182  HIT:    7258415  MISS:     799767
L1D RFO       ACCESS:    4813970  HIT:    4704393  MISS:     109577
L1D PREFETCH  ACCESS:    7598897  HIT:    6879836  MISS:     719061
L1D WRITEBACK ACCESS:          0  HIT:          0  MISS:          0
L1D PREFETCH  REQUESTED:    8128007  ISSUED:    7958974  USEFUL:     199327  USELESS:     519738
L1D AVERAGE MISS LATENCY: 33.2385 cycles
L1I TOTAL     ACCESS:   16070044  HIT:   14318790  MISS:    1751254
L1I LOAD      ACCESS:    9775285  HIT:    9730172  MISS:      45113
L1I RFO       ACCESS:          0  HIT:          0  MISS:          0
L1I PREFETCH  ACCESS:    6294759  HIT:    4588618  MISS:    1706141
L1I WRITEBACK ACCESS:          0  HIT:          0  MISS:          0
L1I PREFETCH  REQUESTED:    6912117  ISSUED:    6800263  USEFUL:     870554  USELESS:     835713
L1I AVERAGE MISS LATENCY: 17.1319 cycles
L2C TOTAL     ACCESS:    4701328  HIT:    4229284  MISS:     472044
L2C LOAD      ACCESS:     789239  HIT:     621498  MISS:     167741
L2C RFO       ACCESS:     104331  HIT:      18334  MISS:      85997
L2C PREFETCH  ACCESS:    3625761  HIT:    3407909  MISS:     217852
L2C WRITEBACK ACCESS:     181997  HIT:     181543  MISS:        454
L2C PREFETCH  REQUESTED:    3416565  ISSUED:    3380096  USEFUL:      19341  USELESS:     200940
L2C AVERAGE MISS LATENCY: 75.8061 cycles
LLC TOTAL     ACCESS:    1677673  HIT:    1491802  MISS:     185871
LLC LOAD      ACCESS:     167643  HIT:     145846  MISS:      21797
LLC RFO       ACCESS:      85994  HIT:      15338  MISS:      70656
LLC PREFETCH  ACCESS:    1288240  HIT:    1195173  MISS:      93067
LLC WRITEBACK ACCESS:     135796  HIT:     135445  MISS:        351
LLC PREFETCH  REQUESTED:          0  ISSUED:          0  USEFUL:      24105  USELESS:      77831
LLC AVERAGE MISS LATENCY: 170.007 cycles
Major fault: 0 Minor fault: 5306
CPU 0 L1D next line prefetcher final stats

DRAM Statistics
 CHANNEL 0
 RQ ROW_BUFFER_HIT:      52015  ROW_BUFFER_MISS:     133485
 DBUS_CONGESTED:      96910
 WQ ROW_BUFFER_HIT:      24090  ROW_BUFFER_MISS:      65556  FULL:          0

 AVG_CONGESTED_CYCLE: 6

CPU 0 Branch Prediction Accuracy: 98.6482% MPKI: 3.1551 Average ROB Occupancy at Mispredict: 97.5935

Branch types
NOT_BRANCH: 38329598 76.6592%
BRANCH_DIRECT_JUMP: 510116 1.02023%
BRANCH_INDIRECT: 225730 0.45146%
BRANCH_CONDITIONAL: 8366762 16.7335%
BRANCH_DIRECT_CALL: 600748 1.2015%
BRANCH_INDIRECT_CALL: 682990 1.36598%
BRANCH_RETURN: 1283974 2.56795%
BRANCH_OTHER: 0 0%

