Initialize SIGNATURE TABLE
ST_SET: 1
ST_WAY: 256
ST_TAG_BIT: 16
ST_TAG_MASK: ffff

Initialize PATTERN TABLE
PT_SET: 512
PT_WAY: 4
SIG_DELTA_BIT: 7
C_SIG_BIT: 4
C_DELTA_BIT: 4

Initialize PREFETCH FILTER
FILTER_SET: 1024

*** ChampSim Multicore Out-of-Order Simulator ***

Warmup Instructions: 50000000
Simulation Instructions: 50000000
Number of CPUs: 1
LLC sets: 2048
LLC ways: 16
Off-chip DRAM Size: 4096 MB Channels: 1 Width: 64-bit Data Rate: 3200 MT/s

CPU 0 runs /home/ykhodke/ChampSim/dpc3_traces/client_002.champsimtrace.xz
CPU 0 L1D next line prefetcher
Heartbeat CPU 0 instructions: 10000000 cycles: 3405179 heartbeat IPC: 2.9367 cumulative IPC: 2.9367 (Simulation time: 0 hr 0 min 13 sec) 
Heartbeat CPU 0 instructions: 20000002 cycles: 6861116 heartbeat IPC: 2.89357 cumulative IPC: 2.91498 (Simulation time: 0 hr 0 min 26 sec) 
Heartbeat CPU 0 instructions: 30000001 cycles: 10294171 heartbeat IPC: 2.91286 cumulative IPC: 2.91427 (Simulation time: 0 hr 0 min 39 sec) 
Heartbeat CPU 0 instructions: 40000002 cycles: 13727300 heartbeat IPC: 2.9128 cumulative IPC: 2.9139 (Simulation time: 0 hr 0 min 52 sec) 
Heartbeat CPU 0 instructions: 50000002 cycles: 17168353 heartbeat IPC: 2.90609 cumulative IPC: 2.91234 (Simulation time: 0 hr 1 min 5 sec) 

Warmup complete CPU 0 instructions: 50000002 cycles: 17168353 (Simulation time: 0 hr 1 min 5 sec) 

Heartbeat CPU 0 instructions: 60000002 cycles: 23834401 heartbeat IPC: 1.50014 cumulative IPC: 1.50014 (Simulation time: 0 hr 1 min 17 sec) 
Heartbeat CPU 0 instructions: 70000000 cycles: 30566695 heartbeat IPC: 1.48538 cumulative IPC: 1.49272 (Simulation time: 0 hr 1 min 29 sec) 
Heartbeat CPU 0 instructions: 80000003 cycles: 37167482 heartbeat IPC: 1.51497 cumulative IPC: 1.50007 (Simulation time: 0 hr 1 min 41 sec) 
Heartbeat CPU 0 instructions: 90000001 cycles: 44369148 heartbeat IPC: 1.38857 cumulative IPC: 1.47055 (Simulation time: 0 hr 1 min 52 sec) 
Heartbeat CPU 0 instructions: 100000003 cycles: 51046817 heartbeat IPC: 1.49753 cumulative IPC: 1.47586 (Simulation time: 0 hr 2 min 4 sec) 
Finished CPU 0 instructions: 50000001 cycles: 33878464 cumulative IPC: 1.47586 (Simulation time: 0 hr 2 min 4 sec) 

ChampSim completed all CPUs

Region of Interest Statistics

CPU 0 cumulative IPC: 1.47586 instructions: 50000001 cycles: 33878464
L1D TOTAL     ACCESS:   19627341  HIT:   19287682  MISS:     339659
L1D LOAD      ACCESS:    6727803  HIT:    6612201  MISS:     115602
L1D RFO       ACCESS:    6438421  HIT:    6348783  MISS:      89638
L1D PREFETCH  ACCESS:    6461117  HIT:    6326698  MISS:     134419
L1D WRITEBACK ACCESS:          0  HIT:          0  MISS:          0
L1D PREFETCH  REQUESTED:    6737434  ISSUED:    6530007  USEFUL:      55250  USELESS:      79312
L1D AVERAGE MISS LATENCY: 48.6083 cycles
L1I TOTAL     ACCESS:    9538142  HIT:    9071177  MISS:     466965
L1I LOAD      ACCESS:    9538142  HIT:    9071177  MISS:     466965
L1I RFO       ACCESS:          0  HIT:          0  MISS:          0
L1I PREFETCH  ACCESS:          0  HIT:          0  MISS:          0
L1I WRITEBACK ACCESS:          0  HIT:          0  MISS:          0
L1I PREFETCH  REQUESTED:          0  ISSUED:          0  USEFUL:          0  USELESS:          0
L1I AVERAGE MISS LATENCY: 20.8308 cycles
L2C TOTAL     ACCESS:    1297852  HIT:    1059848  MISS:     238004
L2C LOAD      ACCESS:     574672  HIT:     450931  MISS:     123741
L2C RFO       ACCESS:      88726  HIT:      23900  MISS:      64826
L2C PREFETCH  ACCESS:     508923  HIT:     459845  MISS:      49078
L2C WRITEBACK ACCESS:     125531  HIT:     125172  MISS:        359
L2C PREFETCH  REQUESTED:     705560  ISSUED:     705560  USEFUL:       5307  USELESS:      43710
L2C AVERAGE MISS LATENCY: 62.5287 cycles
LLC TOTAL     ACCESS:     547395  HIT:     487433  MISS:      59962
LLC LOAD      ACCESS:     123716  HIT:     116902  MISS:       6814
LLC RFO       ACCESS:      64826  HIT:      35179  MISS:      29647
LLC PREFETCH  ACCESS:     275925  HIT:     252661  MISS:      23264
LLC WRITEBACK ACCESS:      82928  HIT:      82691  MISS:        237
LLC PREFETCH  REQUESTED:          0  ISSUED:          0  USEFUL:       6161  USELESS:      16629
LLC AVERAGE MISS LATENCY: 176.436 cycles
Major fault: 0 Minor fault: 3091
CPU 0 L1D next line prefetcher final stats

DRAM Statistics
 CHANNEL 0
 RQ ROW_BUFFER_HIT:      21754  ROW_BUFFER_MISS:      37971
 DBUS_CONGESTED:      43860
 WQ ROW_BUFFER_HIT:       9290  ROW_BUFFER_MISS:      27534  FULL:          0

 AVG_CONGESTED_CYCLE: 6

CPU 0 Branch Prediction Accuracy: 99.2117% MPKI: 1.49752 Average ROB Occupancy at Mispredict: 87.7983

Branch types
NOT_BRANCH: 40501616 81.0032%
BRANCH_DIRECT_JUMP: 517397 1.03479%
BRANCH_INDIRECT: 112348 0.224696%
BRANCH_CONDITIONAL: 6698737 13.3975%
BRANCH_DIRECT_CALL: 960974 1.92195%
BRANCH_INDIRECT_CALL: 123707 0.247414%
BRANCH_RETURN: 1084929 2.16986%
BRANCH_OTHER: 0 0%

