Initialize SIGNATURE TABLE
ST_SET: 1
ST_WAY: 256
ST_TAG_BIT: 16
ST_TAG_MASK: ffff

Initialize PATTERN TABLE
PT_SET: 512
PT_WAY: 4
SIG_DELTA_BIT: 7
C_SIG_BIT: 4
C_DELTA_BIT: 4

Initialize PREFETCH FILTER
FILTER_SET: 1024

*** ChampSim Multicore Out-of-Order Simulator ***

Warmup Instructions: 50000000
Simulation Instructions: 50000000
Number of CPUs: 1
LLC sets: 2048
LLC ways: 16
Off-chip DRAM Size: 4096 MB Channels: 1 Width: 64-bit Data Rate: 3200 MT/s

CPU 0 runs /home/ykhodke/ChampSim/dpc3_traces/client_005.champsimtrace.xz
L1I D-JOLT instruction prefetcher has been constructed!
CPU 0 L1D next line prefetcher
Heartbeat CPU 0 instructions: 10000001 cycles: 3291968 heartbeat IPC: 3.0377 cumulative IPC: 3.0377 (Simulation time: 0 hr 3 min 6 sec) 
Heartbeat CPU 0 instructions: 20000002 cycles: 6698422 heartbeat IPC: 2.9356 cumulative IPC: 2.98578 (Simulation time: 0 hr 6 min 12 sec) 
Heartbeat CPU 0 instructions: 30000001 cycles: 10391740 heartbeat IPC: 2.70759 cumulative IPC: 2.88691 (Simulation time: 0 hr 9 min 18 sec) 
Heartbeat CPU 0 instructions: 40000000 cycles: 14069731 heartbeat IPC: 2.71888 cumulative IPC: 2.84298 (Simulation time: 0 hr 12 min 56 sec) 
Heartbeat CPU 0 instructions: 50000001 cycles: 17343723 heartbeat IPC: 3.05438 cumulative IPC: 2.88289 (Simulation time: 0 hr 15 min 49 sec) 

Warmup complete CPU 0 instructions: 50000001 cycles: 17343723 (Simulation time: 0 hr 15 min 49 sec) 

Heartbeat CPU 0 instructions: 60000002 cycles: 25079947 heartbeat IPC: 1.29262 cumulative IPC: 1.29262 (Simulation time: 0 hr 18 min 57 sec) 
Heartbeat CPU 0 instructions: 70000003 cycles: 32390559 heartbeat IPC: 1.36787 cumulative IPC: 1.32918 (Simulation time: 0 hr 21 min 58 sec) 
Heartbeat CPU 0 instructions: 80000001 cycles: 39265821 heartbeat IPC: 1.45449 cumulative IPC: 1.36848 (Simulation time: 0 hr 25 min 15 sec) 
Heartbeat CPU 0 instructions: 90000002 cycles: 48773700 heartbeat IPC: 1.05176 cumulative IPC: 1.27267 (Simulation time: 0 hr 27 min 49 sec) 
Heartbeat CPU 0 instructions: 100000002 cycles: 56412847 heartbeat IPC: 1.30905 cumulative IPC: 1.27978 (Simulation time: 0 hr 29 min 7 sec) 
Finished CPU 0 instructions: 50000001 cycles: 39069124 cumulative IPC: 1.27978 (Simulation time: 0 hr 29 min 7 sec) 

ChampSim completed all CPUs

Region of Interest Statistics

CPU 0 cumulative IPC: 1.27978 instructions: 50000001 cycles: 39069124
L1D TOTAL     ACCESS:   19616185  HIT:   19080441  MISS:     535744
L1D LOAD      ACCESS:    6640071  HIT:    6468297  MISS:     171774
L1D RFO       ACCESS:    6788699  HIT:    6604054  MISS:     184645
L1D PREFETCH  ACCESS:    6187415  HIT:    6008090  MISS:     179325
L1D WRITEBACK ACCESS:          0  HIT:          0  MISS:          0
L1D PREFETCH  REQUESTED:    6664244  ISSUED:    6294757  USEFUL:      59241  USELESS:     119973
L1D AVERAGE MISS LATENCY: 95.5644 cycles
L1I TOTAL     ACCESS:   19821142  HIT:   16474477  MISS:    3346665
L1I LOAD      ACCESS:    9401471  HIT:    9280780  MISS:     120691
L1I RFO       ACCESS:          0  HIT:          0  MISS:          0
L1I PREFETCH  ACCESS:   10419671  HIT:    7193697  MISS:    3225974
L1I WRITEBACK ACCESS:          0  HIT:          0  MISS:          0
L1I PREFETCH  REQUESTED:   11426909  ISSUED:   10694154  USEFUL:    1183460  USELESS:    2042380
L1I AVERAGE MISS LATENCY: 16.5388 cycles
L2C TOTAL     ACCESS:    5462150  HIT:    5046293  MISS:     415857
L2C LOAD      ACCESS:     258427  HIT:     167938  MISS:      90489
L2C RFO       ACCESS:     180897  HIT:      30312  MISS:     150585
L2C PREFETCH  ACCESS:    4769773  HIT:    4596479  MISS:     173294
L2C WRITEBACK ACCESS:     253053  HIT:     251564  MISS:       1489
L2C PREFETCH  REQUESTED:    2559363  ISSUED:    2559111  USEFUL:      19905  USELESS:     151893
L2C AVERAGE MISS LATENCY: 123.116 cycles
LLC TOTAL     ACCESS:    1036508  HIT:     734689  MISS:     301819
LLC LOAD      ACCESS:      90475  HIT:      46325  MISS:      44150
LLC RFO       ACCESS:     150582  HIT:      16620  MISS:     133962
LLC PREFETCH  ACCESS:     593875  HIT:     471039  MISS:     122836
LLC WRITEBACK ACCESS:     201576  HIT:     200705  MISS:        871
LLC PREFETCH  REQUESTED:          0  ISSUED:          0  USEFUL:      25562  USELESS:      94421
LLC AVERAGE MISS LATENCY: 169.78 cycles
Major fault: 0 Minor fault: 6090
CPU 0 L1D next line prefetcher final stats

DRAM Statistics
 CHANNEL 0
 RQ ROW_BUFFER_HIT:      95081  ROW_BUFFER_MISS:     205859
 DBUS_CONGESTED:     232281
 WQ ROW_BUFFER_HIT:      53504  ROW_BUFFER_MISS:     129421  FULL:          0

 AVG_CONGESTED_CYCLE: 6

CPU 0 Branch Prediction Accuracy: 97.8666% MPKI: 3.9013 Average ROB Occupancy at Mispredict: 88.7228

Branch types
NOT_BRANCH: 40856327 81.7127%
BRANCH_DIRECT_JUMP: 484667 0.969334%
BRANCH_INDIRECT: 85086 0.170172%
BRANCH_CONDITIONAL: 6230887 12.4618%
BRANCH_DIRECT_CALL: 1028917 2.05783%
BRANCH_INDIRECT_CALL: 141825 0.28365%
BRANCH_RETURN: 1171985 2.34397%
BRANCH_OTHER: 0 0%

