Initialize SIGNATURE TABLE
ST_SET: 1
ST_WAY: 256
ST_TAG_BIT: 16
ST_TAG_MASK: ffff

Initialize PATTERN TABLE
PT_SET: 512
PT_WAY: 4
SIG_DELTA_BIT: 7
C_SIG_BIT: 4
C_DELTA_BIT: 4

Initialize PREFETCH FILTER
FILTER_SET: 1024

*** ChampSim Multicore Out-of-Order Simulator ***

Warmup Instructions: 50000000
Simulation Instructions: 50000000
Number of CPUs: 1
LLC sets: 2048
LLC ways: 16
Off-chip DRAM Size: 4096 MB Channels: 1 Width: 64-bit Data Rate: 3200 MT/s

CPU 0 runs /home/ykhodke/ChampSim/dpc3_traces/client_004.champsimtrace.xz
L1I D-JOLT instruction prefetcher has been constructed!
CPU 0 L1D next line prefetcher
Heartbeat CPU 0 instructions: 10000000 cycles: 3592704 heartbeat IPC: 2.78342 cumulative IPC: 2.78342 (Simulation time: 0 hr 3 min 2 sec) 
Heartbeat CPU 0 instructions: 20000003 cycles: 7057290 heartbeat IPC: 2.88635 cumulative IPC: 2.83395 (Simulation time: 0 hr 5 min 54 sec) 
Heartbeat CPU 0 instructions: 30000000 cycles: 10648188 heartbeat IPC: 2.78482 cumulative IPC: 2.81738 (Simulation time: 0 hr 9 min 7 sec) 
Heartbeat CPU 0 instructions: 40000003 cycles: 14329017 heartbeat IPC: 2.71678 cumulative IPC: 2.79154 (Simulation time: 0 hr 12 min 40 sec) 
Heartbeat CPU 0 instructions: 50000001 cycles: 17848502 heartbeat IPC: 2.84132 cumulative IPC: 2.80136 (Simulation time: 0 hr 16 min 5 sec) 

Warmup complete CPU 0 instructions: 50000001 cycles: 17848502 (Simulation time: 0 hr 16 min 5 sec) 

Heartbeat CPU 0 instructions: 60000002 cycles: 25824292 heartbeat IPC: 1.25379 cumulative IPC: 1.25379 (Simulation time: 0 hr 19 min 4 sec) 
Heartbeat CPU 0 instructions: 70000001 cycles: 33855144 heartbeat IPC: 1.2452 cumulative IPC: 1.24948 (Simulation time: 0 hr 22 min 30 sec) 
Heartbeat CPU 0 instructions: 80000002 cycles: 42884758 heartbeat IPC: 1.10747 cumulative IPC: 1.19826 (Simulation time: 0 hr 25 min 6 sec) 
Heartbeat CPU 0 instructions: 90000000 cycles: 51217537 heartbeat IPC: 1.20008 cumulative IPC: 1.19872 (Simulation time: 0 hr 27 min 32 sec) 
Heartbeat CPU 0 instructions: 100000001 cycles: 59372650 heartbeat IPC: 1.22622 cumulative IPC: 1.20412 (Simulation time: 0 hr 29 min 33 sec) 
Finished CPU 0 instructions: 50000000 cycles: 41524148 cumulative IPC: 1.20412 (Simulation time: 0 hr 29 min 33 sec) 

ChampSim completed all CPUs

Region of Interest Statistics

CPU 0 cumulative IPC: 1.20412 instructions: 50000000 cycles: 41524148
L1D TOTAL     ACCESS:   21960039  HIT:   21071074  MISS:     888965
L1D LOAD      ACCESS:    8721473  HIT:    8325490  MISS:     395983
L1D RFO       ACCESS:    4811248  HIT:    4689838  MISS:     121410
L1D PREFETCH  ACCESS:    8427318  HIT:    8055746  MISS:     371572
L1D WRITEBACK ACCESS:          0  HIT:          0  MISS:          0
L1D PREFETCH  REQUESTED:    8761005  ISSUED:    8601536  USEFUL:     133056  USELESS:     238524
L1D AVERAGE MISS LATENCY: 29.6373 cycles
L1I TOTAL     ACCESS:   14401861  HIT:   13228045  MISS:    1173816
L1I LOAD      ACCESS:    9402699  HIT:    9257960  MISS:     144739
L1I RFO       ACCESS:          0  HIT:          0  MISS:          0
L1I PREFETCH  ACCESS:    4999162  HIT:    3970085  MISS:    1029077
L1I WRITEBACK ACCESS:          0  HIT:          0  MISS:          0
L1I PREFETCH  REQUESTED:    5543274  ISSUED:    5385722  USEFUL:     534668  USELESS:     494459
L1I AVERAGE MISS LATENCY: 21.6052 cycles
L2C TOTAL     ACCESS:    3047447  HIT:    2745849  MISS:     301598
L2C LOAD      ACCESS:     507928  HIT:     419188  MISS:      88740
L2C RFO       ACCESS:     117343  HIT:      44640  MISS:      72703
L2C PREFETCH  ACCESS:    2200158  HIT:    2060895  MISS:     139263
L2C WRITEBACK ACCESS:     222018  HIT:     221126  MISS:        892
L2C PREFETCH  REQUESTED:    1663244  ISSUED:    1662557  USEFUL:      29512  USELESS:     109265
L2C AVERAGE MISS LATENCY: 75.5391 cycles
LLC TOTAL     ACCESS:     717266  HIT:     587512  MISS:     129754
LLC LOAD      ACCESS:      88725  HIT:      59366  MISS:      29359
LLC RFO       ACCESS:      72703  HIT:      42103  MISS:      30600
LLC PREFETCH  ACCESS:     453831  HIT:     384226  MISS:      69605
LLC WRITEBACK ACCESS:     102007  HIT:     101817  MISS:        190
LLC PREFETCH  REQUESTED:          0  ISSUED:          0  USEFUL:      25585  USELESS:      47117
LLC AVERAGE MISS LATENCY: 167.546 cycles
Major fault: 0 Minor fault: 3982
CPU 0 L1D next line prefetcher final stats

DRAM Statistics
 CHANNEL 0
 RQ ROW_BUFFER_HIT:      30956  ROW_BUFFER_MISS:      98597
 DBUS_CONGESTED:      54242
 WQ ROW_BUFFER_HIT:      10127  ROW_BUFFER_MISS:      32962  FULL:          0

 AVG_CONGESTED_CYCLE: 5

CPU 0 Branch Prediction Accuracy: 94.1242% MPKI: 11.6089 Average ROB Occupancy at Mispredict: 55.5826

Branch types
NOT_BRANCH: 40121069 80.2421%
BRANCH_DIRECT_JUMP: 644555 1.28911%
BRANCH_INDIRECT: 201946 0.403892%
BRANCH_CONDITIONAL: 7003556 14.0071%
BRANCH_DIRECT_CALL: 564821 1.12964%
BRANCH_INDIRECT_CALL: 445012 0.890024%
BRANCH_RETURN: 1018716 2.03743%
BRANCH_OTHER: 0 0%

