Initialize SIGNATURE TABLE
ST_SET: 1
ST_WAY: 256
ST_TAG_BIT: 16
ST_TAG_MASK: ffff

Initialize PATTERN TABLE
PT_SET: 512
PT_WAY: 4
SIG_DELTA_BIT: 7
C_SIG_BIT: 4
C_DELTA_BIT: 4

Initialize PREFETCH FILTER
FILTER_SET: 1024

*** ChampSim Multicore Out-of-Order Simulator ***

Warmup Instructions: 50000000
Simulation Instructions: 50000000
Number of CPUs: 1
LLC sets: 2048
LLC ways: 16
Off-chip DRAM Size: 4096 MB Channels: 1 Width: 64-bit Data Rate: 3200 MT/s

CPU 0 runs /home/ykhodke/ChampSim/dpc3_traces/server_015.champsimtrace.xz
LHT KB: 126.25
SCC KB: 1.56
Total KB: 127.81
CPU 0 L1D next line prefetcher
Heartbeat CPU 0 instructions: 10000002 cycles: 3519460 heartbeat IPC: 2.84135 cumulative IPC: 2.84135 (Simulation time: 0 hr 3 min 3 sec) 
Heartbeat CPU 0 instructions: 20000001 cycles: 7107615 heartbeat IPC: 2.78695 cumulative IPC: 2.81388 (Simulation time: 0 hr 5 min 52 sec) 
Heartbeat CPU 0 instructions: 30000001 cycles: 10646628 heartbeat IPC: 2.82565 cumulative IPC: 2.81779 (Simulation time: 0 hr 8 min 42 sec) 
Heartbeat CPU 0 instructions: 40000002 cycles: 14194669 heartbeat IPC: 2.81846 cumulative IPC: 2.81796 (Simulation time: 0 hr 11 min 29 sec) 
Heartbeat CPU 0 instructions: 50000002 cycles: 17742929 heartbeat IPC: 2.81828 cumulative IPC: 2.81802 (Simulation time: 0 hr 14 min 13 sec) 

Warmup complete CPU 0 instructions: 50000002 cycles: 17742929 (Simulation time: 0 hr 14 min 13 sec) 

Heartbeat CPU 0 instructions: 60000002 cycles: 24049159 heartbeat IPC: 1.58573 cumulative IPC: 1.58573 (Simulation time: 0 hr 17 min 5 sec) 
Heartbeat CPU 0 instructions: 70000003 cycles: 30368781 heartbeat IPC: 1.58237 cumulative IPC: 1.58405 (Simulation time: 0 hr 19 min 54 sec) 
Heartbeat CPU 0 instructions: 80000000 cycles: 36686175 heartbeat IPC: 1.58293 cumulative IPC: 1.58368 (Simulation time: 0 hr 22 min 46 sec) 
Heartbeat CPU 0 instructions: 90000000 cycles: 43008685 heartbeat IPC: 1.58165 cumulative IPC: 1.58317 (Simulation time: 0 hr 25 min 26 sec) 
Heartbeat CPU 0 instructions: 100000002 cycles: 49329682 heartbeat IPC: 1.58203 cumulative IPC: 1.58294 (Simulation time: 0 hr 27 min 33 sec) 
Finished CPU 0 instructions: 50000000 cycles: 31586753 cumulative IPC: 1.58294 (Simulation time: 0 hr 27 min 33 sec) 

ChampSim completed all CPUs

Region of Interest Statistics

CPU 0 cumulative IPC: 1.58294 instructions: 50000000 cycles: 31586753
L1D TOTAL     ACCESS:   21828051  HIT:   21811286  MISS:      16765
L1D LOAD      ACCESS:    6690393  HIT:    6689863  MISS:        530
L1D RFO       ACCESS:    8561698  HIT:    8561603  MISS:         95
L1D PREFETCH  ACCESS:    6575960  HIT:    6559820  MISS:      16140
L1D WRITEBACK ACCESS:          0  HIT:          0  MISS:          0
L1D PREFETCH  REQUESTED:    6690454  ISSUED:    6580261  USEFUL:         84  USELESS:      16053
L1D AVERAGE MISS LATENCY: 16.0197 cycles
L1I TOTAL     ACCESS:   28506307  HIT:   26193394  MISS:    2312913
L1I LOAD      ACCESS:    9731210  HIT:    9603734  MISS:     127476
L1I RFO       ACCESS:          0  HIT:          0  MISS:          0
L1I PREFETCH  ACCESS:   18775097  HIT:   16589660  MISS:    2185437
L1I WRITEBACK ACCESS:          0  HIT:          0  MISS:          0
L1I PREFETCH  REQUESTED:   20613778  ISSUED:   20613778  USEFUL:    1643057  USELESS:     542342
L1I AVERAGE MISS LATENCY: 13.4701 cycles
L2C TOTAL     ACCESS:    2690390  HIT:    2690100  MISS:        290
L2C LOAD      ACCESS:      19863  HIT:      19793  MISS:         70
L2C RFO       ACCESS:         94  HIT:         89  MISS:          5
L2C PREFETCH  ACCESS:    2670084  HIT:    2669875  MISS:        209
L2C WRITEBACK ACCESS:        349  HIT:        343  MISS:          6
L2C PREFETCH  REQUESTED:     754475  ISSUED:     754475  USEFUL:         63  USELESS:        154
L2C AVERAGE MISS LATENCY: 71.2069 cycles
LLC TOTAL     ACCESS:     154085  HIT:     153563  MISS:        522
LLC LOAD      ACCESS:         70  HIT:         53  MISS:         17
LLC RFO       ACCESS:          5  HIT:          3  MISS:          2
LLC PREFETCH  ACCESS:     153941  HIT:     153440  MISS:        501
LLC WRITEBACK ACCESS:         69  HIT:         67  MISS:          2
LLC PREFETCH  REQUESTED:          0  ISSUED:          0  USEFUL:          6  USELESS:        139
LLC AVERAGE MISS LATENCY: 174.891 cycles
Major fault: 0 Minor fault: 1900
CPU 0 L1D next line prefetcher final stats

DRAM Statistics
 CHANNEL 0
 RQ ROW_BUFFER_HIT:         32  ROW_BUFFER_MISS:        488
 DBUS_CONGESTED:        126
 WQ ROW_BUFFER_HIT:         21  ROW_BUFFER_MISS:        341  FULL:          0

 AVG_CONGESTED_CYCLE: 6

CPU 0 Branch Prediction Accuracy: 99.9085% MPKI: 0.15428 Average ROB Occupancy at Mispredict: 296.608

Branch types
NOT_BRANCH: 41573095 83.1462%
BRANCH_DIRECT_JUMP: 436254 0.872508%
BRANCH_INDIRECT: 0 0%
BRANCH_CONDITIONAL: 5395894 10.7918%
BRANCH_DIRECT_CALL: 1173390 2.34678%
BRANCH_INDIRECT_CALL: 123910 0.24782%
BRANCH_RETURN: 1297310 2.59462%
BRANCH_OTHER: 0 0%

