Initialize SIGNATURE TABLE
ST_SET: 1
ST_WAY: 256
ST_TAG_BIT: 16
ST_TAG_MASK: ffff

Initialize PATTERN TABLE
PT_SET: 512
PT_WAY: 4
SIG_DELTA_BIT: 7
C_SIG_BIT: 4
C_DELTA_BIT: 4

Initialize PREFETCH FILTER
FILTER_SET: 1024

*** ChampSim Multicore Out-of-Order Simulator ***

Warmup Instructions: 50000000
Simulation Instructions: 50000000
Number of CPUs: 1
LLC sets: 2048
LLC ways: 16
Off-chip DRAM Size: 4096 MB Channels: 1 Width: 64-bit Data Rate: 3200 MT/s

CPU 0 runs /home/ykhodke/ChampSim/dpc3_traces/server_039.champsimtrace.xz
L1I D-JOLT instruction prefetcher has been constructed!
CPU 0 L1D next line prefetcher
Heartbeat CPU 0 instructions: 10000003 cycles: 3451574 heartbeat IPC: 2.89723 cumulative IPC: 2.89723 (Simulation time: 0 hr 3 min 49 sec) 
Heartbeat CPU 0 instructions: 20000002 cycles: 6896214 heartbeat IPC: 2.90306 cumulative IPC: 2.90014 (Simulation time: 0 hr 7 min 48 sec) 
Heartbeat CPU 0 instructions: 30000001 cycles: 10342652 heartbeat IPC: 2.90155 cumulative IPC: 2.90061 (Simulation time: 0 hr 11 min 31 sec) 
Heartbeat CPU 0 instructions: 40000002 cycles: 13784486 heartbeat IPC: 2.90543 cumulative IPC: 2.90181 (Simulation time: 0 hr 14 min 56 sec) 
Heartbeat CPU 0 instructions: 50000001 cycles: 17225686 heartbeat IPC: 2.90596 cumulative IPC: 2.90264 (Simulation time: 0 hr 18 min 3 sec) 

Warmup complete CPU 0 instructions: 50000001 cycles: 17225686 (Simulation time: 0 hr 18 min 3 sec) 

Heartbeat CPU 0 instructions: 60000000 cycles: 23000364 heartbeat IPC: 1.7317 cumulative IPC: 1.7317 (Simulation time: 0 hr 21 min 20 sec) 
Heartbeat CPU 0 instructions: 70000000 cycles: 28772005 heartbeat IPC: 1.73261 cumulative IPC: 1.73215 (Simulation time: 0 hr 24 min 38 sec) 
Heartbeat CPU 0 instructions: 80000000 cycles: 34539767 heartbeat IPC: 1.73377 cumulative IPC: 1.73269 (Simulation time: 0 hr 27 min 44 sec) 
Heartbeat CPU 0 instructions: 90000001 cycles: 40308948 heartbeat IPC: 1.73335 cumulative IPC: 1.73286 (Simulation time: 0 hr 29 min 51 sec) 
Heartbeat CPU 0 instructions: 100000002 cycles: 46086008 heartbeat IPC: 1.73098 cumulative IPC: 1.73248 (Simulation time: 0 hr 30 min 52 sec) 
Finished CPU 0 instructions: 50000001 cycles: 28860322 cumulative IPC: 1.73248 (Simulation time: 0 hr 30 min 52 sec) 

ChampSim completed all CPUs

Region of Interest Statistics

CPU 0 cumulative IPC: 1.73248 instructions: 50000001 cycles: 28860322
L1D TOTAL     ACCESS:   19880150  HIT:   19385371  MISS:     494779
L1D LOAD      ACCESS:    6490323  HIT:    6268650  MISS:     221673
L1D RFO       ACCESS:    7088749  HIT:    7021788  MISS:      66961
L1D PREFETCH  ACCESS:    6301078  HIT:    6094933  MISS:     206145
L1D WRITEBACK ACCESS:          0  HIT:          0  MISS:          0
L1D PREFETCH  REQUESTED:    6506018  ISSUED:    6373045  USEFUL:      50032  USELESS:     156117
L1D AVERAGE MISS LATENCY: 15.1212 cycles
L1I TOTAL     ACCESS:   19650341  HIT:   14219334  MISS:    5431007
L1I LOAD      ACCESS:    9329666  HIT:    9251507  MISS:      78159
L1I RFO       ACCESS:          0  HIT:          0  MISS:          0
L1I PREFETCH  ACCESS:   10320675  HIT:    4967827  MISS:    5352848
L1I WRITEBACK ACCESS:          0  HIT:          0  MISS:          0
L1I PREFETCH  REQUESTED:   11019998  ISSUED:   10717931  USEFUL:    4192775  USELESS:    1160095
L1I AVERAGE MISS LATENCY: 14.6642 cycles
L2C TOTAL     ACCESS:    8563256  HIT:    8563166  MISS:         90
L2C LOAD      ACCESS:     283860  HIT:     283854  MISS:          6
L2C RFO       ACCESS:      66751  HIT:      66750  MISS:          1
L2C PREFETCH  ACCESS:    8032530  HIT:    8032450  MISS:         80
L2C WRITEBACK ACCESS:     180115  HIT:     180112  MISS:          3
L2C PREFETCH  REQUESTED:    5308654  ISSUED:    5301927  USEFUL:          4  USELESS:          3
L2C AVERAGE MISS LATENCY: 37.6778 cycles
LLC TOTAL     ACCESS:     638703  HIT:     638360  MISS:        343
LLC LOAD      ACCESS:          6  HIT:          5  MISS:          1
LLC RFO       ACCESS:          1  HIT:          1  MISS:          0
LLC PREFETCH  ACCESS:     638689  HIT:     638347  MISS:        342
LLC WRITEBACK ACCESS:          7  HIT:          7  MISS:          0
LLC PREFETCH  REQUESTED:          0  ISSUED:          0  USEFUL:          2  USELESS:          0
LLC AVERAGE MISS LATENCY: 168.07 cycles
Major fault: 0 Minor fault: 357
CPU 0 L1D next line prefetcher final stats

DRAM Statistics
 CHANNEL 0
 RQ ROW_BUFFER_HIT:         37  ROW_BUFFER_MISS:        306
 DBUS_CONGESTED:         40
 WQ ROW_BUFFER_HIT:          0  ROW_BUFFER_MISS:          0  FULL:          0

 AVG_CONGESTED_CYCLE: 6

CPU 0 Branch Prediction Accuracy: 99.9091% MPKI: 0.1547 Average ROB Occupancy at Mispredict: 295.228

Branch types
NOT_BRANCH: 41494972 82.9899%
BRANCH_DIRECT_JUMP: 491308 0.982616%
BRANCH_INDIRECT: 0 0%
BRANCH_CONDITIONAL: 5595255 11.1905%
BRANCH_DIRECT_CALL: 1028408 2.05682%
BRANCH_INDIRECT_CALL: 180756 0.361512%
BRANCH_RETURN: 1209171 2.41834%
BRANCH_OTHER: 0 0%

