Initialize SIGNATURE TABLE
ST_SET: 1
ST_WAY: 256
ST_TAG_BIT: 16
ST_TAG_MASK: ffff

Initialize PATTERN TABLE
PT_SET: 512
PT_WAY: 4
SIG_DELTA_BIT: 7
C_SIG_BIT: 4
C_DELTA_BIT: 4

Initialize PREFETCH FILTER
FILTER_SET: 1024

*** ChampSim Multicore Out-of-Order Simulator ***

Warmup Instructions: 50000000
Simulation Instructions: 50000000
Number of CPUs: 1
LLC sets: 2048
LLC ways: 16
Off-chip DRAM Size: 4096 MB Channels: 1 Width: 64-bit Data Rate: 3200 MT/s

CPU 0 runs /home/ykhodke/ChampSim/dpc3_traces/server_002.champsimtrace.xz
L1I D-JOLT instruction prefetcher has been constructed!
CPU 0 L1D next line prefetcher
Heartbeat CPU 0 instructions: 10000000 cycles: 3581192 heartbeat IPC: 2.79237 cumulative IPC: 2.79237 (Simulation time: 0 hr 2 min 56 sec) 
Heartbeat CPU 0 instructions: 20000002 cycles: 7170022 heartbeat IPC: 2.78642 cumulative IPC: 2.78939 (Simulation time: 0 hr 5 min 59 sec) 
Heartbeat CPU 0 instructions: 30000000 cycles: 10710780 heartbeat IPC: 2.82425 cumulative IPC: 2.80092 (Simulation time: 0 hr 9 min 6 sec) 
Heartbeat CPU 0 instructions: 40000000 cycles: 14261025 heartbeat IPC: 2.81671 cumulative IPC: 2.80485 (Simulation time: 0 hr 12 min 15 sec) 
Heartbeat CPU 0 instructions: 50000001 cycles: 17808796 heartbeat IPC: 2.81867 cumulative IPC: 2.8076 (Simulation time: 0 hr 15 min 19 sec) 

Warmup complete CPU 0 instructions: 50000001 cycles: 17808796 (Simulation time: 0 hr 15 min 19 sec) 

Heartbeat CPU 0 instructions: 60000000 cycles: 24248090 heartbeat IPC: 1.55297 cumulative IPC: 1.55297 (Simulation time: 0 hr 18 min 32 sec) 
Heartbeat CPU 0 instructions: 70000003 cycles: 30681587 heartbeat IPC: 1.55437 cumulative IPC: 1.55366 (Simulation time: 0 hr 21 min 39 sec) 
Heartbeat CPU 0 instructions: 80000003 cycles: 37117789 heartbeat IPC: 1.55371 cumulative IPC: 1.55368 (Simulation time: 0 hr 24 min 32 sec) 
Heartbeat CPU 0 instructions: 90000002 cycles: 43551519 heartbeat IPC: 1.55431 cumulative IPC: 1.55384 (Simulation time: 0 hr 27 min 10 sec) 
Heartbeat CPU 0 instructions: 100000003 cycles: 49984999 heartbeat IPC: 1.55437 cumulative IPC: 1.55394 (Simulation time: 0 hr 29 min 7 sec) 
Finished CPU 0 instructions: 50000002 cycles: 32176203 cumulative IPC: 1.55394 (Simulation time: 0 hr 29 min 7 sec) 

ChampSim completed all CPUs

Region of Interest Statistics

CPU 0 cumulative IPC: 1.55394 instructions: 50000002 cycles: 32176203
L1D TOTAL     ACCESS:   21522894  HIT:   21522085  MISS:        809
L1D LOAD      ACCESS:    6601072  HIT:    6600695  MISS:        377
L1D RFO       ACCESS:    8433014  HIT:    8432902  MISS:        112
L1D PREFETCH  ACCESS:    6488808  HIT:    6488488  MISS:        320
L1D WRITEBACK ACCESS:          0  HIT:          0  MISS:          0
L1D PREFETCH  REQUESTED:    6601122  ISSUED:    6496173  USEFUL:         90  USELESS:        231
L1D AVERAGE MISS LATENCY: 39.6811 cycles
L1I TOTAL     ACCESS:   19036190  HIT:   15483397  MISS:    3552793
L1I LOAD      ACCESS:    9910680  HIT:    9885740  MISS:      24940
L1I RFO       ACCESS:          0  HIT:          0  MISS:          0
L1I PREFETCH  ACCESS:    9125510  HIT:    5597657  MISS:    3527853
L1I WRITEBACK ACCESS:          0  HIT:          0  MISS:          0
L1I PREFETCH  REQUESTED:    9566026  ISSUED:    9343037  USEFUL:    2290975  USELESS:    1236864
L1I AVERAGE MISS LATENCY: 14.4378 cycles
L2C TOTAL     ACCESS:    4750333  HIT:    4750021  MISS:        312
L2C LOAD      ACCESS:      25257  HIT:      25188  MISS:         69
L2C RFO       ACCESS:        112  HIT:        110  MISS:          2
L2C PREFETCH  ACCESS:    4724628  HIT:    4724388  MISS:        240
L2C WRITEBACK ACCESS:        336  HIT:        335  MISS:          1
L2C PREFETCH  REQUESTED:    3039802  ISSUED:    3038593  USEFUL:        123  USELESS:        115
L2C AVERAGE MISS LATENCY: 127.151 cycles
LLC TOTAL     ACCESS:     752597  HIT:     751775  MISS:        822
LLC LOAD      ACCESS:         69  HIT:         56  MISS:         13
LLC RFO       ACCESS:          2  HIT:          0  MISS:          2
LLC PREFETCH  ACCESS:     752424  HIT:     751621  MISS:        803
LLC WRITEBACK ACCESS:        102  HIT:         98  MISS:          4
LLC PREFETCH  REQUESTED:          0  ISSUED:          0  USEFUL:         12  USELESS:        167
LLC AVERAGE MISS LATENCY: 412.436 cycles
Major fault: 0 Minor fault: 1872
CPU 0 L1D next line prefetcher final stats

DRAM Statistics
 CHANNEL 0
 RQ ROW_BUFFER_HIT:        155  ROW_BUFFER_MISS:        663
 DBUS_CONGESTED:        533
 WQ ROW_BUFFER_HIT:         78  ROW_BUFFER_MISS:        506  FULL:          0

 AVG_CONGESTED_CYCLE: 6

CPU 0 Branch Prediction Accuracy: 99.8789% MPKI: 0.20388 Average ROB Occupancy at Mispredict: 278.043

Branch types
NOT_BRANCH: 41580695 83.1614%
BRANCH_DIRECT_JUMP: 461630 0.92326%
BRANCH_INDIRECT: 0 0%
BRANCH_CONDITIONAL: 5376437 10.7529%
BRANCH_DIRECT_CALL: 1175775 2.35155%
BRANCH_INDIRECT_CALL: 114840 0.22968%
BRANCH_RETURN: 1290625 2.58125%
BRANCH_OTHER: 0 0%

