Initialize SIGNATURE TABLE
ST_SET: 1
ST_WAY: 256
ST_TAG_BIT: 16
ST_TAG_MASK: ffff

Initialize PATTERN TABLE
PT_SET: 512
PT_WAY: 4
SIG_DELTA_BIT: 7
C_SIG_BIT: 4
C_DELTA_BIT: 4

Initialize PREFETCH FILTER
FILTER_SET: 1024

*** ChampSim Multicore Out-of-Order Simulator ***

Warmup Instructions: 50000000
Simulation Instructions: 50000000
Number of CPUs: 1
LLC sets: 2048
LLC ways: 16
Off-chip DRAM Size: 4096 MB Channels: 1 Width: 64-bit Data Rate: 3200 MT/s

CPU 0 runs /home/ykhodke/ChampSim/dpc3_traces/server_019.champsimtrace.xz
LHT KB: 63.12
SCC KB: 1.56
Total KB: 64.69
CPU 0 L1D next line prefetcher
Heartbeat CPU 0 instructions: 10000002 cycles: 3623344 heartbeat IPC: 2.75988 cumulative IPC: 2.75988 (Simulation time: 0 hr 3 min 16 sec) 
Heartbeat CPU 0 instructions: 20000003 cycles: 7247750 heartbeat IPC: 2.75907 cumulative IPC: 2.75948 (Simulation time: 0 hr 6 min 30 sec) 
Heartbeat CPU 0 instructions: 30000002 cycles: 10870876 heartbeat IPC: 2.76005 cumulative IPC: 2.75967 (Simulation time: 0 hr 9 min 48 sec) 
Heartbeat CPU 0 instructions: 40000002 cycles: 14506080 heartbeat IPC: 2.75088 cumulative IPC: 2.75746 (Simulation time: 0 hr 12 min 48 sec) 
Heartbeat CPU 0 instructions: 50000001 cycles: 18129302 heartbeat IPC: 2.75997 cumulative IPC: 2.75797 (Simulation time: 0 hr 15 min 49 sec) 

Warmup complete CPU 0 instructions: 50000001 cycles: 18129302 (Simulation time: 0 hr 15 min 49 sec) 

Heartbeat CPU 0 instructions: 60000000 cycles: 38407544 heartbeat IPC: 0.493139 cumulative IPC: 0.493139 (Simulation time: 0 hr 20 min 10 sec) 
Heartbeat CPU 0 instructions: 70000002 cycles: 62297922 heartbeat IPC: 0.418579 cumulative IPC: 0.45281 (Simulation time: 0 hr 24 min 6 sec) 
Heartbeat CPU 0 instructions: 80000001 cycles: 83272853 heartbeat IPC: 0.47676 cumulative IPC: 0.460521 (Simulation time: 0 hr 27 min 49 sec) 
Heartbeat CPU 0 instructions: 90000002 cycles: 101455057 heartbeat IPC: 0.549988 cumulative IPC: 0.480044 (Simulation time: 0 hr 30 min 1 sec) 
Heartbeat CPU 0 instructions: 100000002 cycles: 119569080 heartbeat IPC: 0.552058 cumulative IPC: 0.492903 (Simulation time: 0 hr 30 min 53 sec) 
Finished CPU 0 instructions: 50000001 cycles: 101439778 cumulative IPC: 0.492903 (Simulation time: 0 hr 30 min 53 sec) 

ChampSim completed all CPUs

Region of Interest Statistics

CPU 0 cumulative IPC: 0.492903 instructions: 50000001 cycles: 101439778
L1D TOTAL     ACCESS:   18332668  HIT:   16109078  MISS:    2223590
L1D LOAD      ACCESS:    6979400  HIT:    6214639  MISS:     764761
L1D RFO       ACCESS:    5548213  HIT:    4646088  MISS:     902125
L1D PREFETCH  ACCESS:    5805055  HIT:    5248351  MISS:     556704
L1D WRITEBACK ACCESS:          0  HIT:          0  MISS:          0
L1D PREFETCH  REQUESTED:    7017936  ISSUED:    6832295  USEFUL:     187490  USELESS:     369122
L1D AVERAGE MISS LATENCY: 186.37 cycles
L1I TOTAL     ACCESS:   22661066  HIT:   19873426  MISS:    2787640
L1I LOAD      ACCESS:    9824272  HIT:    9634376  MISS:     189896
L1I RFO       ACCESS:          0  HIT:          0  MISS:          0
L1I PREFETCH  ACCESS:   12836794  HIT:   10239050  MISS:    2597744
L1I WRITEBACK ACCESS:          0  HIT:          0  MISS:          0
L1I PREFETCH  REQUESTED:   14367185  ISSUED:   14367185  USEFUL:    1941122  USELESS:     656537
L1I AVERAGE MISS LATENCY: 16.9323 cycles
L2C TOTAL     ACCESS:    7242639  HIT:    5350789  MISS:    1891850
L2C LOAD      ACCESS:     583983  HIT:     250020  MISS:     333963
L2C RFO       ACCESS:     901525  HIT:      17791  MISS:     883734
L2C PREFETCH  ACCESS:    4582482  HIT:    3910717  MISS:     671765
L2C WRITEBACK ACCESS:    1174649  HIT:    1172261  MISS:       2388
L2C PREFETCH  REQUESTED:    3403335  ISSUED:    3402421  USEFUL:      23276  USELESS:     646966
L2C AVERAGE MISS LATENCY: 224.23 cycles
LLC TOTAL     ACCESS:    3960751  HIT:    2394125  MISS:    1566626
LLC LOAD      ACCESS:     333957  HIT:     167649  MISS:     166308
LLC RFO       ACCESS:     883733  HIT:     116284  MISS:     767449
LLC PREFETCH  ACCESS:    1631974  HIT:    1001349  MISS:     630625
LLC WRITEBACK ACCESS:    1111087  HIT:    1108843  MISS:       2244
LLC PREFETCH  REQUESTED:          0  ISSUED:          0  USEFUL:      48112  USELESS:     581676
LLC AVERAGE MISS LATENCY: 273.415 cycles
Major fault: 0 Minor fault: 25700
CPU 0 L1D next line prefetcher final stats

DRAM Statistics
 CHANNEL 0
 RQ ROW_BUFFER_HIT:     377746  ROW_BUFFER_MISS:    1186495
 DBUS_CONGESTED:    1535916
 WQ ROW_BUFFER_HIT:     283768  ROW_BUFFER_MISS:     650413  FULL:          0

 AVG_CONGESTED_CYCLE: 6

CPU 0 Branch Prediction Accuracy: 99.2186% MPKI: 1.32192 Average ROB Occupancy at Mispredict: 178.749

Branch types
NOT_BRANCH: 41540960 83.0819%
BRANCH_DIRECT_JUMP: 462384 0.924768%
BRANCH_INDIRECT: 45460 0.09092%
BRANCH_CONDITIONAL: 6209292 12.4186%
BRANCH_DIRECT_CALL: 666241 1.33248%
BRANCH_INDIRECT_CALL: 204728 0.409456%
BRANCH_RETURN: 870978 1.74196%
BRANCH_OTHER: 0 0%

