Initialize SIGNATURE TABLE
ST_SET: 1
ST_WAY: 256
ST_TAG_BIT: 16
ST_TAG_MASK: ffff

Initialize PATTERN TABLE
PT_SET: 512
PT_WAY: 4
SIG_DELTA_BIT: 7
C_SIG_BIT: 4
C_DELTA_BIT: 4

Initialize PREFETCH FILTER
FILTER_SET: 1024

*** ChampSim Multicore Out-of-Order Simulator ***

Warmup Instructions: 50000000
Simulation Instructions: 50000000
Number of CPUs: 1
LLC sets: 2048
LLC ways: 16
Off-chip DRAM Size: 4096 MB Channels: 1 Width: 64-bit Data Rate: 3200 MT/s

CPU 0 runs /home/ykhodke/ChampSim/dpc3_traces/server_027.champsimtrace.xz
L1I D-JOLT instruction prefetcher has been constructed!
CPU 0 L1D next line prefetcher
Heartbeat CPU 0 instructions: 10000001 cycles: 3525438 heartbeat IPC: 2.83653 cumulative IPC: 2.83653 (Simulation time: 0 hr 3 min 35 sec) 
Heartbeat CPU 0 instructions: 20000001 cycles: 7056019 heartbeat IPC: 2.8324 cumulative IPC: 2.83446 (Simulation time: 0 hr 6 min 40 sec) 
Heartbeat CPU 0 instructions: 30000002 cycles: 10581892 heartbeat IPC: 2.83618 cumulative IPC: 2.83503 (Simulation time: 0 hr 9 min 46 sec) 
Heartbeat CPU 0 instructions: 40000000 cycles: 14113307 heartbeat IPC: 2.83173 cumulative IPC: 2.8342 (Simulation time: 0 hr 12 min 34 sec) 
Heartbeat CPU 0 instructions: 50000001 cycles: 17638662 heartbeat IPC: 2.83659 cumulative IPC: 2.83468 (Simulation time: 0 hr 15 min 25 sec) 

Warmup complete CPU 0 instructions: 50000001 cycles: 17638662 (Simulation time: 0 hr 15 min 25 sec) 

Heartbeat CPU 0 instructions: 60000002 cycles: 24503390 heartbeat IPC: 1.45672 cumulative IPC: 1.45672 (Simulation time: 0 hr 18 min 51 sec) 
Heartbeat CPU 0 instructions: 70000003 cycles: 31328517 heartbeat IPC: 1.46517 cumulative IPC: 1.46094 (Simulation time: 0 hr 22 min 9 sec) 
Heartbeat CPU 0 instructions: 80000002 cycles: 38158559 heartbeat IPC: 1.46412 cumulative IPC: 1.462 (Simulation time: 0 hr 24 min 58 sec) 
Heartbeat CPU 0 instructions: 90000001 cycles: 45064499 heartbeat IPC: 1.44803 cumulative IPC: 1.45848 (Simulation time: 0 hr 27 min 39 sec) 
Heartbeat CPU 0 instructions: 100000002 cycles: 51859702 heartbeat IPC: 1.47163 cumulative IPC: 1.46109 (Simulation time: 0 hr 29 min 25 sec) 
Finished CPU 0 instructions: 50000001 cycles: 34221040 cumulative IPC: 1.46109 (Simulation time: 0 hr 29 min 25 sec) 

ChampSim completed all CPUs

Region of Interest Statistics

CPU 0 cumulative IPC: 1.46109 instructions: 50000001 cycles: 34221040
L1D TOTAL     ACCESS:   19876619  HIT:   18274890  MISS:    1601729
L1D LOAD      ACCESS:    6940070  HIT:    6247576  MISS:     692494
L1D RFO       ACCESS:    6285617  HIT:    6000602  MISS:     285015
L1D PREFETCH  ACCESS:    6650932  HIT:    6026712  MISS:     624220
L1D WRITEBACK ACCESS:          0  HIT:          0  MISS:          0
L1D PREFETCH  REQUESTED:    6984920  ISSUED:    6857703  USEFUL:     149250  USELESS:     474981
L1D AVERAGE MISS LATENCY: 24.2224 cycles
L1I TOTAL     ACCESS:   16669546  HIT:   13361206  MISS:    3308340
L1I LOAD      ACCESS:    9496953  HIT:    9446152  MISS:      50801
L1I RFO       ACCESS:          0  HIT:          0  MISS:          0
L1I PREFETCH  ACCESS:    7172593  HIT:    3915054  MISS:    3257539
L1I WRITEBACK ACCESS:          0  HIT:          0  MISS:          0
L1I PREFETCH  REQUESTED:    7617084  ISSUED:    7522246  USEFUL:    2764503  USELESS:     493066
L1I AVERAGE MISS LATENCY: 20.3415 cycles
L2C TOTAL     ACCESS:    6769238  HIT:    5813248  MISS:     955990
L2C LOAD      ACCESS:     705466  HIT:     555515  MISS:     149951
L2C RFO       ACCESS:     283545  HIT:     192723  MISS:      90822
L2C PREFETCH  ACCESS:    5221029  HIT:    4511345  MISS:     709684
L2C WRITEBACK ACCESS:     559198  HIT:     553665  MISS:       5533
L2C PREFETCH  REQUESTED:    4635640  ISSUED:    4629906  USEFUL:      10847  USELESS:     698599
L2C AVERAGE MISS LATENCY: 37.0627 cycles
LLC TOTAL     ACCESS:    2421429  HIT:    2388519  MISS:      32910
LLC LOAD      ACCESS:     149725  HIT:     146157  MISS:       3568
LLC RFO       ACCESS:      90821  HIT:      76895  MISS:      13926
LLC PREFETCH  ACCESS:    2018274  HIT:    2003037  MISS:      15237
LLC WRITEBACK ACCESS:     162609  HIT:     162430  MISS:        179
LLC PREFETCH  REQUESTED:          0  ISSUED:          0  USEFUL:       1298  USELESS:      14105
LLC AVERAGE MISS LATENCY: 184.757 cycles
Major fault: 0 Minor fault: 2483
CPU 0 L1D next line prefetcher final stats

DRAM Statistics
 CHANNEL 0
 RQ ROW_BUFFER_HIT:      11050  ROW_BUFFER_MISS:      21676
 DBUS_CONGESTED:      22483
 WQ ROW_BUFFER_HIT:       1567  ROW_BUFFER_MISS:      14024  FULL:          0

 AVG_CONGESTED_CYCLE: 6

CPU 0 Branch Prediction Accuracy: 99.8082% MPKI: 0.35064 Average ROB Occupancy at Mispredict: 186.418

Branch types
NOT_BRANCH: 40857513 81.715%
BRANCH_DIRECT_JUMP: 526635 1.05327%
BRANCH_INDIRECT: 205902 0.411804%
BRANCH_CONDITIONAL: 6184050 12.3681%
BRANCH_DIRECT_CALL: 938468 1.87694%
BRANCH_INDIRECT_CALL: 174486 0.348972%
BRANCH_RETURN: 1112959 2.22592%
BRANCH_OTHER: 0 0%

