Initialize SIGNATURE TABLE
ST_SET: 1
ST_WAY: 256
ST_TAG_BIT: 16
ST_TAG_MASK: ffff

Initialize PATTERN TABLE
PT_SET: 512
PT_WAY: 4
SIG_DELTA_BIT: 7
C_SIG_BIT: 4
C_DELTA_BIT: 4

Initialize PREFETCH FILTER
FILTER_SET: 1024

*** ChampSim Multicore Out-of-Order Simulator ***

Warmup Instructions: 50000000
Simulation Instructions: 50000000
Number of CPUs: 1
LLC sets: 2048
LLC ways: 16
Off-chip DRAM Size: 4096 MB Channels: 1 Width: 64-bit Data Rate: 3200 MT/s

CPU 0 runs /home/ykhodke/ChampSim/dpc3_traces/server_002.champsimtrace.xz
L1I D-JOLT instruction prefetcher has been constructed!
CPU 0 L1D next line prefetcher
Heartbeat CPU 0 instructions: 10000000 cycles: 3581229 heartbeat IPC: 2.79234 cumulative IPC: 2.79234 (Simulation time: 0 hr 3 min 17 sec) 
Heartbeat CPU 0 instructions: 20000002 cycles: 7170102 heartbeat IPC: 2.78639 cumulative IPC: 2.78936 (Simulation time: 0 hr 6 min 39 sec) 
Heartbeat CPU 0 instructions: 30000000 cycles: 10710836 heartbeat IPC: 2.82427 cumulative IPC: 2.8009 (Simulation time: 0 hr 9 min 38 sec) 
Heartbeat CPU 0 instructions: 40000000 cycles: 14261081 heartbeat IPC: 2.81671 cumulative IPC: 2.80484 (Simulation time: 0 hr 13 min 12 sec) 
Heartbeat CPU 0 instructions: 50000001 cycles: 17808852 heartbeat IPC: 2.81867 cumulative IPC: 2.80759 (Simulation time: 0 hr 16 min 14 sec) 

Warmup complete CPU 0 instructions: 50000001 cycles: 17808852 (Simulation time: 0 hr 16 min 14 sec) 

Heartbeat CPU 0 instructions: 60000000 cycles: 24250438 heartbeat IPC: 1.55241 cumulative IPC: 1.55241 (Simulation time: 0 hr 19 min 25 sec) 
Heartbeat CPU 0 instructions: 70000003 cycles: 30684360 heartbeat IPC: 1.55426 cumulative IPC: 1.55334 (Simulation time: 0 hr 22 min 19 sec) 
Heartbeat CPU 0 instructions: 80000003 cycles: 37120859 heartbeat IPC: 1.55364 cumulative IPC: 1.55344 (Simulation time: 0 hr 25 min 4 sec) 
Heartbeat CPU 0 instructions: 90000002 cycles: 43554673 heartbeat IPC: 1.55429 cumulative IPC: 1.55365 (Simulation time: 0 hr 27 min 37 sec) 
Heartbeat CPU 0 instructions: 100000003 cycles: 49988468 heartbeat IPC: 1.55429 cumulative IPC: 1.55378 (Simulation time: 0 hr 29 min 27 sec) 
Finished CPU 0 instructions: 50000002 cycles: 32179616 cumulative IPC: 1.55378 (Simulation time: 0 hr 29 min 27 sec) 

ChampSim completed all CPUs

Region of Interest Statistics

CPU 0 cumulative IPC: 1.55378 instructions: 50000002 cycles: 32179616
L1D TOTAL     ACCESS:   21522416  HIT:   21521607  MISS:        809
L1D LOAD      ACCESS:    6600862  HIT:    6600485  MISS:        377
L1D RFO       ACCESS:    8433018  HIT:    8432905  MISS:        113
L1D PREFETCH  ACCESS:    6488536  HIT:    6488217  MISS:        319
L1D WRITEBACK ACCESS:          0  HIT:          0  MISS:          0
L1D PREFETCH  REQUESTED:    6600911  ISSUED:    6495936  USEFUL:         90  USELESS:        230
L1D AVERAGE MISS LATENCY: 41.4227 cycles
L1I TOTAL     ACCESS:   20462596  HIT:   16331775  MISS:    4130821
L1I LOAD      ACCESS:    9906503  HIT:    9869448  MISS:      37055
L1I RFO       ACCESS:          0  HIT:          0  MISS:          0
L1I PREFETCH  ACCESS:   10556093  HIT:    6462327  MISS:    4093766
L1I WRITEBACK ACCESS:          0  HIT:          0  MISS:          0
L1I PREFETCH  REQUESTED:   11252475  ISSUED:   10835206  USEFUL:    2433698  USELESS:    1660058
L1I AVERAGE MISS LATENCY: 14.5112 cycles
L2C TOTAL     ACCESS:    5629908  HIT:    5629536  MISS:        372
L2C LOAD      ACCESS:      36796  HIT:      36744  MISS:         52
L2C RFO       ACCESS:        112  HIT:        108  MISS:          4
L2C PREFETCH  ACCESS:    5592664  HIT:    5592348  MISS:        316
L2C WRITEBACK ACCESS:        336  HIT:        336  MISS:          0
L2C PREFETCH  REQUESTED:    3834447  ISSUED:    3826146  USEFUL:        118  USELESS:        166
L2C AVERAGE MISS LATENCY: 209.871 cycles
LLC TOTAL     ACCESS:     888891  HIT:     888021  MISS:        870
LLC LOAD      ACCESS:         51  HIT:         39  MISS:         12
LLC RFO       ACCESS:          4  HIT:          2  MISS:          2
LLC PREFETCH  ACCESS:     888735  HIT:     887879  MISS:        856
LLC WRITEBACK ACCESS:        101  HIT:        101  MISS:          0
LLC PREFETCH  REQUESTED:          0  ISSUED:          0  USEFUL:         10  USELESS:        206
LLC AVERAGE MISS LATENCY: 494.579 cycles
Major fault: 0 Minor fault: 1873
CPU 0 L1D next line prefetcher final stats

DRAM Statistics
 CHANNEL 0
 RQ ROW_BUFFER_HIT:        184  ROW_BUFFER_MISS:        686
 DBUS_CONGESTED:        624
 WQ ROW_BUFFER_HIT:         91  ROW_BUFFER_MISS:        519  FULL:          0

 AVG_CONGESTED_CYCLE: 6

CPU 0 Branch Prediction Accuracy: 99.8789% MPKI: 0.20388 Average ROB Occupancy at Mispredict: 263.128

Branch types
NOT_BRANCH: 41580696 83.1614%
BRANCH_DIRECT_JUMP: 461630 0.92326%
BRANCH_INDIRECT: 0 0%
BRANCH_CONDITIONAL: 5376439 10.7529%
BRANCH_DIRECT_CALL: 1175775 2.35155%
BRANCH_INDIRECT_CALL: 114840 0.22968%
BRANCH_RETURN: 1290625 2.58125%
BRANCH_OTHER: 0 0%

