Initialize SIGNATURE TABLE
ST_SET: 1
ST_WAY: 256
ST_TAG_BIT: 16
ST_TAG_MASK: ffff

Initialize PATTERN TABLE
PT_SET: 512
PT_WAY: 4
SIG_DELTA_BIT: 7
C_SIG_BIT: 4
C_DELTA_BIT: 4

Initialize PREFETCH FILTER
FILTER_SET: 1024

*** ChampSim Multicore Out-of-Order Simulator ***

Warmup Instructions: 50000000
Simulation Instructions: 50000000
Number of CPUs: 1
LLC sets: 2048
LLC ways: 16
Off-chip DRAM Size: 4096 MB Channels: 1 Width: 64-bit Data Rate: 3200 MT/s

CPU 0 runs /home/ykhodke/ChampSim/dpc3_traces/server_027.champsimtrace.xz
LHT KB: 63.12
SCC KB: 1.56
Total KB: 64.69
CPU 0 L1D next line prefetcher
Heartbeat CPU 0 instructions: 10000001 cycles: 3531441 heartbeat IPC: 2.83171 cumulative IPC: 2.83171 (Simulation time: 0 hr 3 min 38 sec) 
Heartbeat CPU 0 instructions: 20000001 cycles: 7066831 heartbeat IPC: 2.82854 cumulative IPC: 2.83012 (Simulation time: 0 hr 7 min 22 sec) 
Heartbeat CPU 0 instructions: 30000002 cycles: 10597603 heartbeat IPC: 2.83224 cumulative IPC: 2.83083 (Simulation time: 0 hr 11 min 1 sec) 
Heartbeat CPU 0 instructions: 40000003 cycles: 14134062 heartbeat IPC: 2.82769 cumulative IPC: 2.83004 (Simulation time: 0 hr 14 min 42 sec) 
Heartbeat CPU 0 instructions: 50000001 cycles: 17663947 heartbeat IPC: 2.83295 cumulative IPC: 2.83062 (Simulation time: 0 hr 18 min 20 sec) 

Warmup complete CPU 0 instructions: 50000001 cycles: 17663947 (Simulation time: 0 hr 18 min 20 sec) 

Heartbeat CPU 0 instructions: 60000002 cycles: 24882270 heartbeat IPC: 1.38536 cumulative IPC: 1.38536 (Simulation time: 0 hr 21 min 55 sec) 
Heartbeat CPU 0 instructions: 70000003 cycles: 32032924 heartbeat IPC: 1.39847 cumulative IPC: 1.39189 (Simulation time: 0 hr 25 min 27 sec) 
Heartbeat CPU 0 instructions: 80000002 cycles: 39201339 heartbeat IPC: 1.39501 cumulative IPC: 1.39293 (Simulation time: 0 hr 28 min 5 sec) 
Heartbeat CPU 0 instructions: 90000001 cycles: 46448279 heartbeat IPC: 1.37989 cumulative IPC: 1.38964 (Simulation time: 0 hr 29 min 35 sec) 
Heartbeat CPU 0 instructions: 100000002 cycles: 53572408 heartbeat IPC: 1.40368 cumulative IPC: 1.39243 (Simulation time: 0 hr 30 min 13 sec) 
Finished CPU 0 instructions: 50000001 cycles: 35908461 cumulative IPC: 1.39243 (Simulation time: 0 hr 30 min 13 sec) 

ChampSim completed all CPUs

Region of Interest Statistics

CPU 0 cumulative IPC: 1.39243 instructions: 50000001 cycles: 35908461
L1D TOTAL     ACCESS:   20207060  HIT:   18605191  MISS:    1601869
L1D LOAD      ACCESS:    7100553  HIT:    6409004  MISS:     691549
L1D RFO       ACCESS:    6292993  HIT:    6007350  MISS:     285643
L1D PREFETCH  ACCESS:    6813514  HIT:    6188837  MISS:     624677
L1D WRITEBACK ACCESS:          0  HIT:          0  MISS:          0
L1D PREFETCH  REQUESTED:    7147922  ISSUED:    7023177  USEFUL:     149665  USELESS:     475025
L1D AVERAGE MISS LATENCY: 25.1485 cycles
L1I TOTAL     ACCESS:   23960101  HIT:   18759821  MISS:    5200280
L1I LOAD      ACCESS:    9308019  HIT:    8645316  MISS:     662703
L1I RFO       ACCESS:          0  HIT:          0  MISS:          0
L1I PREFETCH  ACCESS:   14652082  HIT:   10114505  MISS:    4537577
L1I WRITEBACK ACCESS:          0  HIT:          0  MISS:          0
L1I PREFETCH  REQUESTED:   19251290  ISSUED:   19251290  USEFUL:    2296883  USELESS:    2240679
L1I AVERAGE MISS LATENCY: 15.8704 cycles
L2C TOTAL     ACCESS:    9304795  HIT:    8324684  MISS:     980111
L2C LOAD      ACCESS:     793528  HIT:     612943  MISS:     180585
L2C RFO       ACCESS:     283624  HIT:     179117  MISS:     104507
L2C PREFETCH  ACCESS:    7668468  HIT:    6981594  MISS:     686874
L2C WRITEBACK ACCESS:     559175  HIT:     551030  MISS:       8145
L2C PREFETCH  REQUESTED:    5430227  ISSUED:    5424087  USEFUL:      24680  USELESS:     661169
L2C AVERAGE MISS LATENCY: 36.8365 cycles
LLC TOTAL     ACCESS:    2491705  HIT:    2458816  MISS:      32889
LLC LOAD      ACCESS:     180385  HIT:     177098  MISS:       3287
LLC RFO       ACCESS:     104503  HIT:      90580  MISS:      13923
LLC PREFETCH  ACCESS:    2027768  HIT:    2012231  MISS:      15537
LLC WRITEBACK ACCESS:     179049  HIT:     178907  MISS:        142
LLC PREFETCH  REQUESTED:          0  ISSUED:          0  USEFUL:       1142  USELESS:      13820
LLC AVERAGE MISS LATENCY: 188.256 cycles
Major fault: 0 Minor fault: 2492
CPU 0 L1D next line prefetcher final stats

DRAM Statistics
 CHANNEL 0
 RQ ROW_BUFFER_HIT:      11060  ROW_BUFFER_MISS:      21686
 DBUS_CONGESTED:      23194
 WQ ROW_BUFFER_HIT:       1568  ROW_BUFFER_MISS:      14636  FULL:          0

 AVG_CONGESTED_CYCLE: 6

CPU 0 Branch Prediction Accuracy: 99.8082% MPKI: 0.35064 Average ROB Occupancy at Mispredict: 165.673

Branch types
NOT_BRANCH: 40857507 81.715%
BRANCH_DIRECT_JUMP: 526635 1.05327%
BRANCH_INDIRECT: 205902 0.411804%
BRANCH_CONDITIONAL: 6184050 12.3681%
BRANCH_DIRECT_CALL: 938468 1.87694%
BRANCH_INDIRECT_CALL: 174486 0.348972%
BRANCH_RETURN: 1112959 2.22592%
BRANCH_OTHER: 0 0%

