Initialize SIGNATURE TABLE
ST_SET: 1
ST_WAY: 256
ST_TAG_BIT: 16
ST_TAG_MASK: ffff

Initialize PATTERN TABLE
PT_SET: 512
PT_WAY: 4
SIG_DELTA_BIT: 7
C_SIG_BIT: 4
C_DELTA_BIT: 4

Initialize PREFETCH FILTER
FILTER_SET: 1024

*** ChampSim Multicore Out-of-Order Simulator ***

Warmup Instructions: 50000000
Simulation Instructions: 50000000
Number of CPUs: 1
LLC sets: 2048
LLC ways: 16
Off-chip DRAM Size: 4096 MB Channels: 1 Width: 64-bit Data Rate: 3200 MT/s

CPU 0 runs /home/ykhodke/ChampSim/dpc3_traces/server_022.champsimtrace.xz
LHT KB: 63.12
SCC KB: 1.56
Total KB: 64.69
CPU 0 L1D next line prefetcher
Heartbeat CPU 0 instructions: 10000002 cycles: 3624285 heartbeat IPC: 2.75917 cumulative IPC: 2.75917 (Simulation time: 0 hr 3 min 13 sec) 
Heartbeat CPU 0 instructions: 20000001 cycles: 7254732 heartbeat IPC: 2.75448 cumulative IPC: 2.75682 (Simulation time: 0 hr 6 min 37 sec) 
Heartbeat CPU 0 instructions: 30000003 cycles: 10878850 heartbeat IPC: 2.75929 cumulative IPC: 2.75764 (Simulation time: 0 hr 9 min 54 sec) 
Heartbeat CPU 0 instructions: 40000003 cycles: 14510422 heartbeat IPC: 2.75363 cumulative IPC: 2.75664 (Simulation time: 0 hr 12 min 50 sec) 
Heartbeat CPU 0 instructions: 50000002 cycles: 18132230 heartbeat IPC: 2.76105 cumulative IPC: 2.75752 (Simulation time: 0 hr 15 min 50 sec) 

Warmup complete CPU 0 instructions: 50000002 cycles: 18132230 (Simulation time: 0 hr 15 min 50 sec) 

Heartbeat CPU 0 instructions: 60000000 cycles: 35534495 heartbeat IPC: 0.574638 cumulative IPC: 0.574638 (Simulation time: 0 hr 21 min 22 sec) 
Heartbeat CPU 0 instructions: 70000001 cycles: 53116689 heartbeat IPC: 0.568757 cumulative IPC: 0.571682 (Simulation time: 0 hr 25 min 38 sec) 
Heartbeat CPU 0 instructions: 80000001 cycles: 70492701 heartbeat IPC: 0.575506 cumulative IPC: 0.572951 (Simulation time: 0 hr 28 min 48 sec) 
Heartbeat CPU 0 instructions: 90000003 cycles: 88128868 heartbeat IPC: 0.567017 cumulative IPC: 0.571456 (Simulation time: 0 hr 30 min 23 sec) 
Heartbeat CPU 0 instructions: 100000003 cycles: 105441901 heartbeat IPC: 0.5776 cumulative IPC: 0.572674 (Simulation time: 0 hr 31 min 1 sec) 
Finished CPU 0 instructions: 50000001 cycles: 87309671 cumulative IPC: 0.572674 (Simulation time: 0 hr 31 min 1 sec) 

ChampSim completed all CPUs

Region of Interest Statistics

CPU 0 cumulative IPC: 0.572674 instructions: 50000001 cycles: 87309671
L1D TOTAL     ACCESS:   18735269  HIT:   16524519  MISS:    2210750
L1D LOAD      ACCESS:    7056394  HIT:    6335723  MISS:     720671
L1D RFO       ACCESS:    5937455  HIT:    4957690  MISS:     979765
L1D PREFETCH  ACCESS:    5741420  HIT:    5231106  MISS:     510314
L1D WRITEBACK ACCESS:          0  HIT:          0  MISS:          0
L1D PREFETCH  REQUESTED:    7100064  ISSUED:    6892443  USEFUL:     189121  USELESS:     321198
L1D AVERAGE MISS LATENCY: 179.142 cycles
L1I TOTAL     ACCESS:   24108050  HIT:   21033232  MISS:    3074818
L1I LOAD      ACCESS:   10089230  HIT:    9875528  MISS:     213702
L1I RFO       ACCESS:          0  HIT:          0  MISS:          0
L1I PREFETCH  ACCESS:   14018820  HIT:   11157704  MISS:    2861116
L1I WRITEBACK ACCESS:          0  HIT:          0  MISS:          0
L1I PREFETCH  REQUESTED:   15662574  ISSUED:   15662574  USEFUL:    2202467  USELESS:     658639
L1I AVERAGE MISS LATENCY: 16.0946 cycles
L2C TOTAL     ACCESS:    7575669  HIT:    5712447  MISS:    1863222
L2C LOAD      ACCESS:     507736  HIT:     260173  MISS:     247563
L2C RFO       ACCESS:     978979  HIT:      22403  MISS:     956576
L2C PREFETCH  ACCESS:    4903822  HIT:    4248757  MISS:     655065
L2C WRITEBACK ACCESS:    1185132  HIT:    1181114  MISS:       4018
L2C PREFETCH  REQUESTED:    3338822  ISSUED:    3337931  USEFUL:      21203  USELESS:     633821
L2C AVERAGE MISS LATENCY: 220.488 cycles
LLC TOTAL     ACCESS:    3839972  HIT:    2463602  MISS:    1376370
LLC LOAD      ACCESS:     247555  HIT:     171228  MISS:      76327
LLC RFO       ACCESS:     956576  HIT:     141897  MISS:     814679
LLC PREFETCH  ACCESS:    1519059  HIT:    1035985  MISS:     483074
LLC WRITEBACK ACCESS:    1116782  HIT:    1114492  MISS:       2290
LLC PREFETCH  REQUESTED:          0  ISSUED:          0  USEFUL:      24137  USELESS:     459226
LLC AVERAGE MISS LATENCY: 288.237 cycles
Major fault: 0 Minor fault: 23512
CPU 0 L1D next line prefetcher final stats

DRAM Statistics
 CHANNEL 0
 RQ ROW_BUFFER_HIT:     388744  ROW_BUFFER_MISS:     985041
 DBUS_CONGESTED:    1393977
 WQ ROW_BUFFER_HIT:     287208  ROW_BUFFER_MISS:     610763  FULL:          0

 AVG_CONGESTED_CYCLE: 6

CPU 0 Branch Prediction Accuracy: 99.8317% MPKI: 0.27564 Average ROB Occupancy at Mispredict: 218.757

Branch types
NOT_BRANCH: 41811143 83.6223%
BRANCH_DIRECT_JUMP: 445742 0.891484%
BRANCH_INDIRECT: 48876 0.097752%
BRANCH_CONDITIONAL: 5859406 11.7188%
BRANCH_DIRECT_CALL: 758267 1.51653%
BRANCH_INDIRECT_CALL: 159103 0.318206%
BRANCH_RETURN: 917372 1.83474%
BRANCH_OTHER: 0 0%

