Initialize SIGNATURE TABLE
ST_SET: 1
ST_WAY: 256
ST_TAG_BIT: 16
ST_TAG_MASK: ffff

Initialize PATTERN TABLE
PT_SET: 512
PT_WAY: 4
SIG_DELTA_BIT: 7
C_SIG_BIT: 4
C_DELTA_BIT: 4

Initialize PREFETCH FILTER
FILTER_SET: 1024

*** ChampSim Multicore Out-of-Order Simulator ***

Warmup Instructions: 50000000
Simulation Instructions: 50000000
Number of CPUs: 1
LLC sets: 2048
LLC ways: 16
Off-chip DRAM Size: 4096 MB Channels: 1 Width: 64-bit Data Rate: 3200 MT/s

CPU 0 runs /home/ykhodke/ChampSim/dpc3_traces/server_003.champsimtrace.xz
LHT KB: 126.25
SCC KB: 1.56
Total KB: 127.81
CPU 0 L1D next line prefetcher
Heartbeat CPU 0 instructions: 10000002 cycles: 3227890 heartbeat IPC: 3.098 cumulative IPC: 3.098 (Simulation time: 0 hr 3 min 10 sec) 
Heartbeat CPU 0 instructions: 20000000 cycles: 6550277 heartbeat IPC: 3.00988 cumulative IPC: 3.05331 (Simulation time: 0 hr 6 min 16 sec) 
Heartbeat CPU 0 instructions: 30000000 cycles: 9764497 heartbeat IPC: 3.11117 cumulative IPC: 3.07235 (Simulation time: 0 hr 9 min 24 sec) 
Heartbeat CPU 0 instructions: 40000001 cycles: 13182402 heartbeat IPC: 2.92577 cumulative IPC: 3.03435 (Simulation time: 0 hr 13 min 13 sec) 
Heartbeat CPU 0 instructions: 50000002 cycles: 16901425 heartbeat IPC: 2.68888 cumulative IPC: 2.95833 (Simulation time: 0 hr 16 min 5 sec) 

Warmup complete CPU 0 instructions: 50000002 cycles: 16901425 (Simulation time: 0 hr 16 min 5 sec) 

Heartbeat CPU 0 instructions: 60000000 cycles: 25873216 heartbeat IPC: 1.1146 cumulative IPC: 1.1146 (Simulation time: 0 hr 18 min 57 sec) 
Heartbeat CPU 0 instructions: 70000003 cycles: 34909396 heartbeat IPC: 1.10666 cumulative IPC: 1.11062 (Simulation time: 0 hr 21 min 25 sec) 
Heartbeat CPU 0 instructions: 80000000 cycles: 45012321 heartbeat IPC: 0.989812 cumulative IPC: 1.0672 (Simulation time: 0 hr 24 min 8 sec) 
Heartbeat CPU 0 instructions: 90000003 cycles: 55183090 heartbeat IPC: 0.98321 cumulative IPC: 1.04489 (Simulation time: 0 hr 26 min 45 sec) 
Heartbeat CPU 0 instructions: 100000001 cycles: 66026198 heartbeat IPC: 0.922245 cumulative IPC: 1.01782 (Simulation time: 0 hr 28 min 32 sec) 
Finished CPU 0 instructions: 50000003 cycles: 49124774 cumulative IPC: 1.01782 (Simulation time: 0 hr 28 min 32 sec) 

ChampSim completed all CPUs

Region of Interest Statistics

CPU 0 cumulative IPC: 1.01782 instructions: 50000003 cycles: 49124774
L1D TOTAL     ACCESS:   20014492  HIT:   18873545  MISS:    1140947
L1D LOAD      ACCESS:    7861643  HIT:    7331794  MISS:     529849
L1D RFO       ACCESS:    4553431  HIT:    4436006  MISS:     117425
L1D PREFETCH  ACCESS:    7599418  HIT:    7105745  MISS:     493673
L1D WRITEBACK ACCESS:          0  HIT:          0  MISS:          0
L1D PREFETCH  REQUESTED:    7922557  ISSUED:    7830687  USEFUL:     155415  USELESS:     338217
L1D AVERAGE MISS LATENCY: 55.0925 cycles
L1I TOTAL     ACCESS:   18716362  HIT:   16971891  MISS:    1744471
L1I LOAD      ACCESS:    9295403  HIT:    9067525  MISS:     227878
L1I RFO       ACCESS:          0  HIT:          0  MISS:          0
L1I PREFETCH  ACCESS:    9420959  HIT:    7904366  MISS:    1516593
L1I WRITEBACK ACCESS:          0  HIT:          0  MISS:          0
L1I PREFETCH  REQUESTED:   12857682  ISSUED:   12857682  USEFUL:     772787  USELESS:     743719
L1I AVERAGE MISS LATENCY: 30.1783 cycles
L2C TOTAL     ACCESS:    3915021  HIT:    2877751  MISS:    1037270
L2C LOAD      ACCESS:     553026  HIT:     305015  MISS:     248011
L2C RFO       ACCESS:     114692  HIT:      40172  MISS:      74520
L2C PREFETCH  ACCESS:    2963040  HIT:    2249709  MISS:     713331
L2C WRITEBACK ACCESS:     284263  HIT:     282855  MISS:       1408
L2C PREFETCH  REQUESTED:    2430255  ISSUED:    2428337  USEFUL:      28871  USELESS:     682119
L2C AVERAGE MISS LATENCY: 80.3998 cycles
LLC TOTAL     ACCESS:    1879558  HIT:    1513876  MISS:     365682
LLC LOAD      ACCESS:     247852  HIT:     185633  MISS:      62219
LLC RFO       ACCESS:      74517  HIT:      32070  MISS:      42447
LLC PREFETCH  ACCESS:    1388499  HIT:    1128618  MISS:     259881
LLC WRITEBACK ACCESS:     168690  HIT:     167555  MISS:       1135
LLC PREFETCH  REQUESTED:          0  ISSUED:          0  USEFUL:      24768  USELESS:     225585
LLC AVERAGE MISS LATENCY: 191.011 cycles
Major fault: 0 Minor fault: 7793
CPU 0 L1D next line prefetcher final stats

DRAM Statistics
 CHANNEL 0
 RQ ROW_BUFFER_HIT:      82576  ROW_BUFFER_MISS:     281928
 DBUS_CONGESTED:     187931
 WQ ROW_BUFFER_HIT:      21811  ROW_BUFFER_MISS:      79688  FULL:          0

 AVG_CONGESTED_CYCLE: 5

CPU 0 Branch Prediction Accuracy: 95.439% MPKI: 9.02702 Average ROB Occupancy at Mispredict: 66.7223

Branch types
NOT_BRANCH: 40104089 80.2082%
BRANCH_DIRECT_JUMP: 497928 0.995856%
BRANCH_INDIRECT: 130587 0.261174%
BRANCH_CONDITIONAL: 7219018 14.438%
BRANCH_DIRECT_CALL: 625807 1.25161%
BRANCH_INDIRECT_CALL: 389787 0.779574%
BRANCH_RETURN: 1032747 2.06549%
BRANCH_OTHER: 0 0%

