Initialize SIGNATURE TABLE
ST_SET: 1
ST_WAY: 256
ST_TAG_BIT: 16
ST_TAG_MASK: ffff

Initialize PATTERN TABLE
PT_SET: 512
PT_WAY: 4
SIG_DELTA_BIT: 7
C_SIG_BIT: 4
C_DELTA_BIT: 4

Initialize PREFETCH FILTER
FILTER_SET: 1024

*** ChampSim Multicore Out-of-Order Simulator ***

Warmup Instructions: 50000000
Simulation Instructions: 50000000
Number of CPUs: 1
LLC sets: 2048
LLC ways: 16
Off-chip DRAM Size: 4096 MB Channels: 1 Width: 64-bit Data Rate: 3200 MT/s

CPU 0 runs /home/ykhodke/ChampSim/dpc3_traces/server_021.champsimtrace.xz
CPU 0 EPI prefetcher
CPU 0 L1D next line prefetcher
Heartbeat CPU 0 instructions: 10000000 cycles: 3622943 heartbeat IPC: 2.76019 cumulative IPC: 2.76019 (Simulation time: 0 hr 3 min 32 sec) 
Heartbeat CPU 0 instructions: 20000000 cycles: 7240643 heartbeat IPC: 2.76419 cumulative IPC: 2.76219 (Simulation time: 0 hr 7 min 28 sec) 
Heartbeat CPU 0 instructions: 30000003 cycles: 10888803 heartbeat IPC: 2.74111 cumulative IPC: 2.75512 (Simulation time: 0 hr 11 min 7 sec) 
Heartbeat CPU 0 instructions: 40000001 cycles: 14502071 heartbeat IPC: 2.76758 cumulative IPC: 2.75823 (Simulation time: 0 hr 14 min 44 sec) 
Heartbeat CPU 0 instructions: 50000002 cycles: 18137219 heartbeat IPC: 2.75092 cumulative IPC: 2.75676 (Simulation time: 0 hr 18 min 13 sec) 

Warmup complete CPU 0 instructions: 50000002 cycles: 18137219 (Simulation time: 0 hr 18 min 13 sec) 

Heartbeat CPU 0 instructions: 60000001 cycles: 34995423 heartbeat IPC: 0.593183 cumulative IPC: 0.593183 (Simulation time: 0 hr 22 min 37 sec) 
Heartbeat CPU 0 instructions: 70000002 cycles: 52067968 heartbeat IPC: 0.585736 cumulative IPC: 0.589436 (Simulation time: 0 hr 26 min 50 sec) 
Heartbeat CPU 0 instructions: 80000001 cycles: 69032201 heartbeat IPC: 0.589475 cumulative IPC: 0.589449 (Simulation time: 0 hr 31 min 5 sec) 
Heartbeat CPU 0 instructions: 90000001 cycles: 86372000 heartbeat IPC: 0.576708 cumulative IPC: 0.586211 (Simulation time: 0 hr 34 min 2 sec) 
Heartbeat CPU 0 instructions: 100000002 cycles: 103388301 heartbeat IPC: 0.587672 cumulative IPC: 0.586503 (Simulation time: 0 hr 35 min 15 sec) 
Finished CPU 0 instructions: 50000000 cycles: 85251082 cumulative IPC: 0.586503 (Simulation time: 0 hr 35 min 15 sec) 

ChampSim completed all CPUs

Region of Interest Statistics

CPU 0 cumulative IPC: 0.586503 instructions: 50000000 cycles: 85251082
L1D TOTAL     ACCESS:   18708996  HIT:   16505457  MISS:    2203539
L1D LOAD      ACCESS:    7058016  HIT:    6348111  MISS:     709905
L1D RFO       ACCESS:    5892206  HIT:    4916612  MISS:     975594
L1D PREFETCH  ACCESS:    5758774  HIT:    5240734  MISS:     518040
L1D WRITEBACK ACCESS:          0  HIT:          0  MISS:          0
L1D PREFETCH  REQUESTED:    7100343  ISSUED:    6893743  USEFUL:     196725  USELESS:     321309
L1D AVERAGE MISS LATENCY: 177.877 cycles
L1I TOTAL     ACCESS:   33374961  HIT:   30827664  MISS:    2547297
L1I LOAD      ACCESS:   10127547  HIT:   10107638  MISS:      19909
L1I RFO       ACCESS:          0  HIT:          0  MISS:          0
L1I PREFETCH  ACCESS:   23247414  HIT:   20720026  MISS:    2527388
L1I WRITEBACK ACCESS:          0  HIT:          0  MISS:          0
L1I PREFETCH  REQUESTED:   27564423  ISSUED:   27564423  USEFUL:    2375725  USELESS:     151642
L1I AVERAGE MISS LATENCY: 18.5933 cycles
L2C TOTAL     ACCESS:    7010198  HIT:    5146797  MISS:    1863401
L2C LOAD      ACCESS:     485113  HIT:     237722  MISS:     247391
L2C RFO       ACCESS:     974951  HIT:      21497  MISS:     953454
L2C PREFETCH  ACCESS:    4370260  HIT:    3710381  MISS:     659879
L2C WRITEBACK ACCESS:    1179874  HIT:    1177197  MISS:       2677
L2C PREFETCH  REQUESTED:    3937379  ISSUED:    3931631  USEFUL:      20656  USELESS:     639268
L2C AVERAGE MISS LATENCY: 217.434 cycles
LLC TOTAL     ACCESS:    4017285  HIT:    2628512  MISS:    1388773
LLC LOAD      ACCESS:     247336  HIT:     172900  MISS:      74436
LLC RFO       ACCESS:     953397  HIT:     142390  MISS:     811007
LLC PREFETCH  ACCESS:    1704348  HIT:    1203091  MISS:     501257
LLC WRITEBACK ACCESS:    1112204  HIT:    1110131  MISS:       2073
LLC PREFETCH  REQUESTED:          0  ISSUED:          0  USEFUL:      27807  USELESS:     471461
LLC AVERAGE MISS LATENCY: 288.057 cycles
Major fault: 0 Minor fault: 22292
CPU 0 L1I EPI prefetcher final stats
CPU 0 L1D next line prefetcher final stats

DRAM Statistics
 CHANNEL 0
 RQ ROW_BUFFER_HIT:     400213  ROW_BUFFER_MISS:     986195
 DBUS_CONGESTED:    1420560
 WQ ROW_BUFFER_HIT:     274879  ROW_BUFFER_MISS:     621767  FULL:          0

 AVG_CONGESTED_CYCLE: 6

CPU 0 Branch Prediction Accuracy: 99.8303% MPKI: 0.27836 Average ROB Occupancy at Mispredict: 227.697

Branch types
NOT_BRANCH: 41798549 83.5971%
BRANCH_DIRECT_JUMP: 445215 0.89043%
BRANCH_INDIRECT: 50481 0.100962%
BRANCH_CONDITIONAL: 5868246 11.7365%
BRANCH_DIRECT_CALL: 758228 1.51646%
BRANCH_INDIRECT_CALL: 160494 0.320988%
BRANCH_RETURN: 918718 1.83744%
BRANCH_OTHER: 0 0%

