Initialize SIGNATURE TABLE
ST_SET: 1
ST_WAY: 256
ST_TAG_BIT: 16
ST_TAG_MASK: ffff

Initialize PATTERN TABLE
PT_SET: 512
PT_WAY: 4
SIG_DELTA_BIT: 7
C_SIG_BIT: 4
C_DELTA_BIT: 4

Initialize PREFETCH FILTER
FILTER_SET: 1024

*** ChampSim Multicore Out-of-Order Simulator ***

Warmup Instructions: 50000000
Simulation Instructions: 50000000
Number of CPUs: 1
LLC sets: 2048
LLC ways: 16
Off-chip DRAM Size: 4096 MB Channels: 1 Width: 64-bit Data Rate: 3200 MT/s

CPU 0 runs /home/ykhodke/ChampSim/dpc3_traces/server_009.champsimtrace.xz
L1I D-JOLT instruction prefetcher has been constructed!
CPU 0 L1D next line prefetcher
Heartbeat CPU 0 instructions: 10000003 cycles: 3196164 heartbeat IPC: 3.12875 cumulative IPC: 3.12875 (Simulation time: 0 hr 3 min 26 sec) 
Heartbeat CPU 0 instructions: 20000001 cycles: 6385556 heartbeat IPC: 3.13539 cumulative IPC: 3.13207 (Simulation time: 0 hr 6 min 49 sec) 
Heartbeat CPU 0 instructions: 30000002 cycles: 9589856 heartbeat IPC: 3.12081 cumulative IPC: 3.12831 (Simulation time: 0 hr 9 min 51 sec) 
Heartbeat CPU 0 instructions: 40000003 cycles: 12790463 heartbeat IPC: 3.12441 cumulative IPC: 3.12733 (Simulation time: 0 hr 13 min 6 sec) 
Heartbeat CPU 0 instructions: 50000000 cycles: 16047819 heartbeat IPC: 3.06997 cumulative IPC: 3.11569 (Simulation time: 0 hr 16 min 15 sec) 

Warmup complete CPU 0 instructions: 50000004 cycles: 16047820 (Simulation time: 0 hr 16 min 15 sec) 

Heartbeat CPU 0 instructions: 60000002 cycles: 31746050 heartbeat IPC: 0.637015 cumulative IPC: 0.637014 (Simulation time: 0 hr 20 min 5 sec) 
Heartbeat CPU 0 instructions: 70000003 cycles: 52817816 heartbeat IPC: 0.474569 cumulative IPC: 0.543922 (Simulation time: 0 hr 24 min 20 sec) 
Heartbeat CPU 0 instructions: 80000000 cycles: 59964860 heartbeat IPC: 1.39918 cumulative IPC: 0.683106 (Simulation time: 0 hr 26 min 50 sec) 
Heartbeat CPU 0 instructions: 90000001 cycles: 67232593 heartbeat IPC: 1.37594 cumulative IPC: 0.781482 (Simulation time: 0 hr 28 min 48 sec) 
Heartbeat CPU 0 instructions: 100000003 cycles: 74391588 heartbeat IPC: 1.39684 cumulative IPC: 0.85699 (Simulation time: 0 hr 29 min 36 sec) 
Finished CPU 0 instructions: 50000003 cycles: 58343769 cumulative IPC: 0.85699 (Simulation time: 0 hr 29 min 36 sec) 

ChampSim completed all CPUs

Region of Interest Statistics

CPU 0 cumulative IPC: 0.85699 instructions: 50000003 cycles: 58343769
L1D TOTAL     ACCESS:   21601997  HIT:   17022516  MISS:    4579481
L1D LOAD      ACCESS:    8617599  HIT:    6337271  MISS:    2280328
L1D RFO       ACCESS:    4580168  HIT:    4475732  MISS:     104436
L1D PREFETCH  ACCESS:    8404230  HIT:    6209513  MISS:    2194717
L1D WRITEBACK ACCESS:          0  HIT:          0  MISS:          0
L1D PREFETCH  REQUESTED:    8649957  ISSUED:    8553078  USEFUL:     106260  USELESS:    2088456
L1D AVERAGE MISS LATENCY: 20.4133 cycles
L1I TOTAL     ACCESS:   16784217  HIT:   15252431  MISS:    1531786
L1I LOAD      ACCESS:   10768009  HIT:   10700702  MISS:      67307
L1I RFO       ACCESS:          0  HIT:          0  MISS:          0
L1I PREFETCH  ACCESS:    6016208  HIT:    4551729  MISS:    1464479
L1I WRITEBACK ACCESS:          0  HIT:          0  MISS:          0
L1I PREFETCH  REQUESTED:    6628272  ISSUED:    6333676  USEFUL:    1083134  USELESS:     381319
L1I AVERAGE MISS LATENCY: 31.133 cycles
L2C TOTAL     ACCESS:    7889524  HIT:    6846065  MISS:    1043459
L2C LOAD      ACCESS:    2297966  HIT:    2077093  MISS:     220873
L2C RFO       ACCESS:     103480  HIT:      63161  MISS:      40319
L2C PREFETCH  ACCESS:    5231225  HIT:    4450047  MISS:     781178
L2C WRITEBACK ACCESS:     256853  HIT:     255764  MISS:       1089
L2C PREFETCH  REQUESTED:    6566767  ISSUED:    6564161  USEFUL:      22074  USELESS:     757893
L2C AVERAGE MISS LATENCY: 47.3849 cycles
LLC TOTAL     ACCESS:    2309691  HIT:    2170860  MISS:     138831
LLC LOAD      ACCESS:     220637  HIT:     199889  MISS:      20748
LLC RFO       ACCESS:      40307  HIT:      31768  MISS:       8539
LLC PREFETCH  ACCESS:    1911500  HIT:    1802228  MISS:     109272
LLC WRITEBACK ACCESS:     137247  HIT:     136975  MISS:        272
LLC PREFETCH  REQUESTED:          0  ISSUED:          0  USEFUL:      11726  USELESS:      96459
LLC AVERAGE MISS LATENCY: 173.454 cycles
Major fault: 0 Minor fault: 6365
CPU 0 L1D next line prefetcher final stats

DRAM Statistics
 CHANNEL 0
 RQ ROW_BUFFER_HIT:      26751  ROW_BUFFER_MISS:     111785
 DBUS_CONGESTED:      57899
 WQ ROW_BUFFER_HIT:       8958  ROW_BUFFER_MISS:      36841  FULL:          0

 AVG_CONGESTED_CYCLE: 5

CPU 0 Branch Prediction Accuracy: 99.4713% MPKI: 1.11484 Average ROB Occupancy at Mispredict: 119.558

Branch types
NOT_BRANCH: 39456615 78.9132%
BRANCH_DIRECT_JUMP: 445350 0.8907%
BRANCH_INDIRECT: 131149 0.262298%
BRANCH_CONDITIONAL: 8130196 16.2604%
BRANCH_DIRECT_CALL: 732485 1.46497%
BRANCH_INDIRECT_CALL: 172369 0.344738%
BRANCH_RETURN: 931558 1.86312%
BRANCH_OTHER: 0 0%

