Initialize SIGNATURE TABLE
ST_SET: 1
ST_WAY: 256
ST_TAG_BIT: 16
ST_TAG_MASK: ffff

Initialize PATTERN TABLE
PT_SET: 512
PT_WAY: 4
SIG_DELTA_BIT: 7
C_SIG_BIT: 4
C_DELTA_BIT: 4

Initialize PREFETCH FILTER
FILTER_SET: 1024

*** ChampSim Multicore Out-of-Order Simulator ***

Warmup Instructions: 50000000
Simulation Instructions: 50000000
Number of CPUs: 1
LLC sets: 2048
LLC ways: 16
Off-chip DRAM Size: 4096 MB Channels: 1 Width: 64-bit Data Rate: 3200 MT/s

CPU 0 runs /home/ykhodke/ChampSim/dpc3_traces/server_018.champsimtrace.xz
CPU 0 EPI prefetcher
CPU 0 L1D next line prefetcher
Heartbeat CPU 0 instructions: 10000003 cycles: 3616639 heartbeat IPC: 2.765 cumulative IPC: 2.765 (Simulation time: 0 hr 4 min 2 sec) 
Heartbeat CPU 0 instructions: 20000001 cycles: 7238175 heartbeat IPC: 2.76126 cumulative IPC: 2.76313 (Simulation time: 0 hr 7 min 31 sec) 
Heartbeat CPU 0 instructions: 30000003 cycles: 10713633 heartbeat IPC: 2.87732 cumulative IPC: 2.80017 (Simulation time: 0 hr 10 min 44 sec) 
Heartbeat CPU 0 instructions: 40000000 cycles: 14224807 heartbeat IPC: 2.84805 cumulative IPC: 2.81199 (Simulation time: 0 hr 14 min 12 sec) 
Heartbeat CPU 0 instructions: 50000003 cycles: 17841222 heartbeat IPC: 2.76517 cumulative IPC: 2.8025 (Simulation time: 0 hr 17 min 48 sec) 

Warmup complete CPU 0 instructions: 50000003 cycles: 17841222 (Simulation time: 0 hr 17 min 48 sec) 

Heartbeat CPU 0 instructions: 60000000 cycles: 35293943 heartbeat IPC: 0.572976 cumulative IPC: 0.572976 (Simulation time: 0 hr 22 min 26 sec) 
Heartbeat CPU 0 instructions: 70000001 cycles: 52846662 heartbeat IPC: 0.569712 cumulative IPC: 0.57134 (Simulation time: 0 hr 27 min 48 sec) 
Heartbeat CPU 0 instructions: 80000001 cycles: 70432538 heartbeat IPC: 0.568638 cumulative IPC: 0.570436 (Simulation time: 0 hr 32 min 13 sec) 
Heartbeat CPU 0 instructions: 90000002 cycles: 88057061 heartbeat IPC: 0.567391 cumulative IPC: 0.569672 (Simulation time: 0 hr 34 min 37 sec) 
Heartbeat CPU 0 instructions: 100000001 cycles: 105579870 heartbeat IPC: 0.570685 cumulative IPC: 0.569874 (Simulation time: 0 hr 35 min 26 sec) 
Finished CPU 0 instructions: 50000002 cycles: 87738649 cumulative IPC: 0.569874 (Simulation time: 0 hr 35 min 26 sec) 

ChampSim completed all CPUs

Region of Interest Statistics

CPU 0 cumulative IPC: 0.569874 instructions: 50000002 cycles: 87738649
L1D TOTAL     ACCESS:   18614189  HIT:   16396452  MISS:    2217737
L1D LOAD      ACCESS:    7041019  HIT:    6313508  MISS:     727511
L1D RFO       ACCESS:    5810548  HIT:    4858299  MISS:     952249
L1D PREFETCH  ACCESS:    5762622  HIT:    5224645  MISS:     537977
L1D WRITEBACK ACCESS:          0  HIT:          0  MISS:          0
L1D PREFETCH  REQUESTED:    7081935  ISSUED:    6877930  USEFUL:     198245  USELESS:     339821
L1D AVERAGE MISS LATENCY: 174.705 cycles
L1I TOTAL     ACCESS:   30452547  HIT:   27933470  MISS:    2519077
L1I LOAD      ACCESS:   10112332  HIT:   10093508  MISS:      18824
L1I RFO       ACCESS:          0  HIT:          0  MISS:          0
L1I PREFETCH  ACCESS:   20340215  HIT:   17839962  MISS:    2500253
L1I WRITEBACK ACCESS:          0  HIT:          0  MISS:          0
L1I PREFETCH  REQUESTED:   23360831  ISSUED:   23360831  USEFUL:    2326787  USELESS:     173491
L1I AVERAGE MISS LATENCY: 18.8997 cycles
L2C TOTAL     ACCESS:    7023075  HIT:    5159915  MISS:    1863160
L2C LOAD      ACCESS:     512488  HIT:     249233  MISS:     263255
L2C RFO       ACCESS:     951696  HIT:      20022  MISS:     931674
L2C PREFETCH  ACCESS:    4388894  HIT:    3723197  MISS:     665697
L2C WRITEBACK ACCESS:    1169997  HIT:    1167463  MISS:       2534
L2C PREFETCH  REQUESTED:    4087986  ISSUED:    4082874  USEFUL:      23165  USELESS:     643616
L2C AVERAGE MISS LATENCY: 213.153 cycles
LLC TOTAL     ACCESS:    4035552  HIT:    2601300  MISS:    1434252
LLC LOAD      ACCESS:     263175  HIT:     165458  MISS:      97717
LLC RFO       ACCESS:     931657  HIT:     137938  MISS:     793719
LLC PREFETCH  ACCESS:    1739618  HIT:    1198728  MISS:     540890
LLC WRITEBACK ACCESS:    1101102  HIT:    1099176  MISS:       1926
LLC PREFETCH  REQUESTED:          0  ISSUED:          0  USEFUL:      29250  USELESS:     511525
LLC AVERAGE MISS LATENCY: 279.518 cycles
Major fault: 0 Minor fault: 22442
CPU 0 L1I EPI prefetcher final stats
CPU 0 L1D next line prefetcher final stats

DRAM Statistics
 CHANNEL 0
 RQ ROW_BUFFER_HIT:     404660  ROW_BUFFER_MISS:    1027408
 DBUS_CONGESTED:    1433086
 WQ ROW_BUFFER_HIT:     265178  ROW_BUFFER_MISS:     627831  FULL:          0

 AVG_CONGESTED_CYCLE: 6

CPU 0 Branch Prediction Accuracy: 99.7114% MPKI: 0.47678 Average ROB Occupancy at Mispredict: 213.042

Branch types
NOT_BRANCH: 41741008 83.482%
BRANCH_DIRECT_JUMP: 458652 0.917304%
BRANCH_INDIRECT: 48282 0.096564%
BRANCH_CONDITIONAL: 5930881 11.8618%
BRANCH_DIRECT_CALL: 744230 1.48846%
BRANCH_INDIRECT_CALL: 166336 0.332672%
BRANCH_RETURN: 910589 1.82118%
BRANCH_OTHER: 0 0%

