Initialize SIGNATURE TABLE
ST_SET: 1
ST_WAY: 256
ST_TAG_BIT: 16
ST_TAG_MASK: ffff

Initialize PATTERN TABLE
PT_SET: 512
PT_WAY: 4
SIG_DELTA_BIT: 7
C_SIG_BIT: 4
C_DELTA_BIT: 4

Initialize PREFETCH FILTER
FILTER_SET: 1024

*** ChampSim Multicore Out-of-Order Simulator ***

Warmup Instructions: 50000000
Simulation Instructions: 50000000
Number of CPUs: 1
LLC sets: 2048
LLC ways: 16
Off-chip DRAM Size: 4096 MB Channels: 1 Width: 64-bit Data Rate: 3200 MT/s

CPU 0 runs /home/ykhodke/ChampSim/dpc3_traces/server_012.champsimtrace.xz
LHT KB: 126.25
SCC KB: 1.56
Total KB: 127.81
CPU 0 L1D next line prefetcher
Heartbeat CPU 0 instructions: 10000002 cycles: 3198031 heartbeat IPC: 3.12692 cumulative IPC: 3.12692 (Simulation time: 0 hr 2 min 46 sec) 
Heartbeat CPU 0 instructions: 20000002 cycles: 6398090 heartbeat IPC: 3.12494 cumulative IPC: 3.12593 (Simulation time: 0 hr 5 min 28 sec) 
Heartbeat CPU 0 instructions: 30000001 cycles: 9599477 heartbeat IPC: 3.12365 cumulative IPC: 3.12517 (Simulation time: 0 hr 8 min 10 sec) 
Heartbeat CPU 0 instructions: 40000000 cycles: 12806774 heartbeat IPC: 3.11789 cumulative IPC: 3.12335 (Simulation time: 0 hr 11 min 5 sec) 
Heartbeat CPU 0 instructions: 50000003 cycles: 16006696 heartbeat IPC: 3.12508 cumulative IPC: 3.12369 (Simulation time: 0 hr 14 min 23 sec) 

Warmup complete CPU 0 instructions: 50000003 cycles: 16006696 (Simulation time: 0 hr 14 min 23 sec) 

Heartbeat CPU 0 instructions: 60000002 cycles: 23231813 heartbeat IPC: 1.38406 cumulative IPC: 1.38406 (Simulation time: 0 hr 17 min 27 sec) 
Heartbeat CPU 0 instructions: 70000000 cycles: 30524920 heartbeat IPC: 1.37116 cumulative IPC: 1.37758 (Simulation time: 0 hr 20 min 11 sec) 
Heartbeat CPU 0 instructions: 80000003 cycles: 37792643 heartbeat IPC: 1.37595 cumulative IPC: 1.37703 (Simulation time: 0 hr 23 min 13 sec) 
Heartbeat CPU 0 instructions: 90000001 cycles: 45351426 heartbeat IPC: 1.32296 cumulative IPC: 1.36311 (Simulation time: 0 hr 25 min 59 sec) 
Heartbeat CPU 0 instructions: 100000002 cycles: 52753356 heartbeat IPC: 1.351 cumulative IPC: 1.36067 (Simulation time: 0 hr 28 min 28 sec) 
Finished CPU 0 instructions: 50000001 cycles: 36746661 cumulative IPC: 1.36067 (Simulation time: 0 hr 28 min 28 sec) 

ChampSim completed all CPUs

Region of Interest Statistics

CPU 0 cumulative IPC: 1.36067 instructions: 50000001 cycles: 36746661
L1D TOTAL     ACCESS:   17409028  HIT:   16365714  MISS:    1043314
L1D LOAD      ACCESS:    6343013  HIT:    5856061  MISS:     486952
L1D RFO       ACCESS:    4965501  HIT:    4883487  MISS:      82014
L1D PREFETCH  ACCESS:    6100514  HIT:    5626166  MISS:     474348
L1D WRITEBACK ACCESS:          0  HIT:          0  MISS:          0
L1D PREFETCH  REQUESTED:    6377647  ISSUED:    6278100  USEFUL:     133551  USELESS:     340817
L1D AVERAGE MISS LATENCY: 40.5121 cycles
L1I TOTAL     ACCESS:   17507670  HIT:   15199825  MISS:    2307845
L1I LOAD      ACCESS:    8679107  HIT:    8372721  MISS:     306386
L1I RFO       ACCESS:          0  HIT:          0  MISS:          0
L1I PREFETCH  ACCESS:    8828563  HIT:    6827104  MISS:    2001459
L1I WRITEBACK ACCESS:          0  HIT:          0  MISS:          0
L1I PREFETCH  REQUESTED:   10763273  ISSUED:   10763273  USEFUL:    1131176  USELESS:     870238
L1I AVERAGE MISS LATENCY: 24.7438 cycles
L2C TOTAL     ACCESS:    4369806  HIT:    3085107  MISS:    1284699
L2C LOAD      ACCESS:     512387  HIT:     246354  MISS:     266033
L2C RFO       ACCESS:      80770  HIT:      31865  MISS:      48905
L2C PREFETCH  ACCESS:    3501113  HIT:    2533536  MISS:     967577
L2C WRITEBACK ACCESS:     275536  HIT:     273352  MISS:       2184
L2C PREFETCH  REQUESTED:    3090598  ISSUED:    3086620  USEFUL:      27298  USELESS:     939823
L2C AVERAGE MISS LATENCY: 45.5911 cycles
LLC TOTAL     ACCESS:    2385079  HIT:    2239942  MISS:     145137
LLC LOAD      ACCESS:     265919  HIT:     247188  MISS:      18731
LLC RFO       ACCESS:      48899  HIT:      39362  MISS:       9537
LLC PREFETCH  ACCESS:    1902172  HIT:    1785513  MISS:     116659
LLC WRITEBACK ACCESS:     168089  HIT:     167879  MISS:        210
LLC PREFETCH  REQUESTED:          0  ISSUED:          0  USEFUL:      10301  USELESS:     106054
LLC AVERAGE MISS LATENCY: 172.335 cycles
Major fault: 0 Minor fault: 5623
CPU 0 L1D next line prefetcher final stats

DRAM Statistics
 CHANNEL 0
 RQ ROW_BUFFER_HIT:      22976  ROW_BUFFER_MISS:     121931
 DBUS_CONGESTED:      64129
 WQ ROW_BUFFER_HIT:      11073  ROW_BUFFER_MISS:      48032  FULL:          0

 AVG_CONGESTED_CYCLE: 5

CPU 0 Branch Prediction Accuracy: 99.4607% MPKI: 1.00288 Average ROB Occupancy at Mispredict: 114.931

Branch types
NOT_BRANCH: 40701133 81.4023%
BRANCH_DIRECT_JUMP: 469810 0.93962%
BRANCH_INDIRECT: 153732 0.307464%
BRANCH_CONDITIONAL: 6944084 13.8882%
BRANCH_DIRECT_CALL: 679880 1.35976%
BRANCH_INDIRECT_CALL: 168745 0.33749%
BRANCH_RETURN: 882493 1.76499%
BRANCH_OTHER: 0 0%

