Initialize SIGNATURE TABLE
ST_SET: 1
ST_WAY: 256
ST_TAG_BIT: 16
ST_TAG_MASK: ffff

Initialize PATTERN TABLE
PT_SET: 512
PT_WAY: 4
SIG_DELTA_BIT: 7
C_SIG_BIT: 4
C_DELTA_BIT: 4

Initialize PREFETCH FILTER
FILTER_SET: 1024

*** ChampSim Multicore Out-of-Order Simulator ***

Warmup Instructions: 50000000
Simulation Instructions: 50000000
Number of CPUs: 1
LLC sets: 2048
LLC ways: 16
Off-chip DRAM Size: 4096 MB Channels: 1 Width: 64-bit Data Rate: 3200 MT/s

CPU 0 runs /home/ykhodke/ChampSim/dpc3_traces/server_033.champsimtrace.xz
LHT KB: 63.12
SCC KB: 1.56
Total KB: 64.69
CPU 0 L1D next line prefetcher
Heartbeat CPU 0 instructions: 10000001 cycles: 3340670 heartbeat IPC: 2.99341 cumulative IPC: 2.99341 (Simulation time: 0 hr 3 min 30 sec) 
Heartbeat CPU 0 instructions: 20000002 cycles: 6679951 heartbeat IPC: 2.99466 cumulative IPC: 2.99403 (Simulation time: 0 hr 6 min 37 sec) 
Heartbeat CPU 0 instructions: 30000001 cycles: 10008747 heartbeat IPC: 3.00409 cumulative IPC: 2.99738 (Simulation time: 0 hr 9 min 56 sec) 
Heartbeat CPU 0 instructions: 40000000 cycles: 13346095 heartbeat IPC: 2.99639 cumulative IPC: 2.99713 (Simulation time: 0 hr 13 min 41 sec) 
Heartbeat CPU 0 instructions: 50000000 cycles: 16682891 heartbeat IPC: 2.99689 cumulative IPC: 2.99708 (Simulation time: 0 hr 17 min 15 sec) 

Warmup complete CPU 0 instructions: 50000004 cycles: 16682892 (Simulation time: 0 hr 17 min 15 sec) 

Heartbeat CPU 0 instructions: 60000000 cycles: 23220462 heartbeat IPC: 1.52962 cumulative IPC: 1.52962 (Simulation time: 0 hr 20 min 47 sec) 
Heartbeat CPU 0 instructions: 70000000 cycles: 29717465 heartbeat IPC: 1.53917 cumulative IPC: 1.53438 (Simulation time: 0 hr 24 min 7 sec) 
Heartbeat CPU 0 instructions: 80000000 cycles: 37079319 heartbeat IPC: 1.35835 cumulative IPC: 1.47085 (Simulation time: 0 hr 27 min 31 sec) 
Heartbeat CPU 0 instructions: 90000003 cycles: 43677562 heartbeat IPC: 1.51556 cumulative IPC: 1.48177 (Simulation time: 0 hr 29 min 31 sec) 
Heartbeat CPU 0 instructions: 100000000 cycles: 50212126 heartbeat IPC: 1.53032 cumulative IPC: 1.49124 (Simulation time: 0 hr 30 min 27 sec) 
Finished CPU 0 instructions: 50000000 cycles: 33529241 cumulative IPC: 1.49124 (Simulation time: 0 hr 30 min 27 sec) 

ChampSim completed all CPUs

Region of Interest Statistics

CPU 0 cumulative IPC: 1.49124 instructions: 50000000 cycles: 33529241
L1D TOTAL     ACCESS:   18335427  HIT:   16853030  MISS:    1482397
L1D LOAD      ACCESS:    6191766  HIT:    5508592  MISS:     683174
L1D RFO       ACCESS:    6165472  HIT:    6015668  MISS:     149804
L1D PREFETCH  ACCESS:    5978189  HIT:    5328770  MISS:     649419
L1D WRITEBACK ACCESS:          0  HIT:          0  MISS:          0
L1D PREFETCH  REQUESTED:    6233545  ISSUED:    6115501  USEFUL:     141129  USELESS:     508297
L1D AVERAGE MISS LATENCY: 23.3506 cycles
L1I TOTAL     ACCESS:   25481137  HIT:   20028658  MISS:    5452479
L1I LOAD      ACCESS:    9614574  HIT:    9118008  MISS:     496566
L1I RFO       ACCESS:          0  HIT:          0  MISS:          0
L1I PREFETCH  ACCESS:   15866563  HIT:   10910650  MISS:    4955913
L1I WRITEBACK ACCESS:          0  HIT:          0  MISS:          0
L1I PREFETCH  REQUESTED:   18493613  ISSUED:   18493613  USEFUL:    2993971  USELESS:    1961859
L1I AVERAGE MISS LATENCY: 13.7853 cycles
L2C TOTAL     ACCESS:    9263436  HIT:    8990059  MISS:     273377
L2C LOAD      ACCESS:     766853  HIT:     650563  MISS:     116290
L2C RFO       ACCESS:     148418  HIT:     129193  MISS:      19225
L2C PREFETCH  ACCESS:    7981701  HIT:    7844829  MISS:     136872
L2C WRITEBACK ACCESS:     366464  HIT:     365474  MISS:        990
L2C PREFETCH  REQUESTED:    5289484  ISSUED:    5280812  USEFUL:      10205  USELESS:     126075
L2C AVERAGE MISS LATENCY: 49.8991 cycles
LLC TOTAL     ACCESS:    1654699  HIT:    1607732  MISS:      46967
LLC LOAD      ACCESS:     116283  HIT:     103627  MISS:      12656
LLC RFO       ACCESS:      19225  HIT:      16239  MISS:       2986
LLC PREFETCH  ACCESS:    1417531  HIT:    1386473  MISS:      31058
LLC WRITEBACK ACCESS:     101660  HIT:     101393  MISS:        267
LLC PREFETCH  REQUESTED:          0  ISSUED:          0  USEFUL:       4849  USELESS:      25576
LLC AVERAGE MISS LATENCY: 173.538 cycles
Major fault: 0 Minor fault: 2493
CPU 0 L1D next line prefetcher final stats

DRAM Statistics
 CHANNEL 0
 RQ ROW_BUFFER_HIT:       7414  ROW_BUFFER_MISS:      39283
 DBUS_CONGESTED:      18783
 WQ ROW_BUFFER_HIT:       3291  ROW_BUFFER_MISS:      14544  FULL:          0

 AVG_CONGESTED_CYCLE: 5

CPU 0 Branch Prediction Accuracy: 99.9029% MPKI: 0.19006 Average ROB Occupancy at Mispredict: 222.363

Branch types
NOT_BRANCH: 40217101 80.4342%
BRANCH_DIRECT_JUMP: 774599 1.5492%
BRANCH_INDIRECT: 108806 0.217612%
BRANCH_CONDITIONAL: 6379330 12.7587%
BRANCH_DIRECT_CALL: 1048808 2.09762%
BRANCH_INDIRECT_CALL: 211109 0.422218%
BRANCH_RETURN: 1259925 2.51985%
BRANCH_OTHER: 0 0%

