Initialize SIGNATURE TABLE
ST_SET: 1
ST_WAY: 256
ST_TAG_BIT: 16
ST_TAG_MASK: ffff

Initialize PATTERN TABLE
PT_SET: 512
PT_WAY: 4
SIG_DELTA_BIT: 7
C_SIG_BIT: 4
C_DELTA_BIT: 4

Initialize PREFETCH FILTER
FILTER_SET: 1024

*** ChampSim Multicore Out-of-Order Simulator ***

Warmup Instructions: 50000000
Simulation Instructions: 50000000
Number of CPUs: 1
LLC sets: 2048
LLC ways: 16
Off-chip DRAM Size: 4096 MB Channels: 1 Width: 64-bit Data Rate: 3200 MT/s

CPU 0 runs /home/ykhodke/ChampSim/dpc3_traces/server_004.champsimtrace.xz
L1I D-JOLT instruction prefetcher has been constructed!
CPU 0 L1D next line prefetcher
Heartbeat CPU 0 instructions: 10000002 cycles: 3226265 heartbeat IPC: 3.09956 cumulative IPC: 3.09956 (Simulation time: 0 hr 2 min 58 sec) 
Heartbeat CPU 0 instructions: 20000002 cycles: 6559488 heartbeat IPC: 3.0001 cumulative IPC: 3.04902 (Simulation time: 0 hr 5 min 54 sec) 
Heartbeat CPU 0 instructions: 30000000 cycles: 11676610 heartbeat IPC: 1.95422 cumulative IPC: 2.56924 (Simulation time: 0 hr 10 min 10 sec) 
Heartbeat CPU 0 instructions: 40000003 cycles: 15422710 heartbeat IPC: 2.66944 cumulative IPC: 2.59358 (Simulation time: 0 hr 14 min 10 sec) 
Heartbeat CPU 0 instructions: 50000003 cycles: 18648073 heartbeat IPC: 3.10043 cumulative IPC: 2.68124 (Simulation time: 0 hr 16 min 57 sec) 

Warmup complete CPU 0 instructions: 50000003 cycles: 18648073 (Simulation time: 0 hr 16 min 57 sec) 

Heartbeat CPU 0 instructions: 60000002 cycles: 27778612 heartbeat IPC: 1.09523 cumulative IPC: 1.09523 (Simulation time: 0 hr 19 min 39 sec) 
Heartbeat CPU 0 instructions: 70000000 cycles: 36200811 heartbeat IPC: 1.18734 cumulative IPC: 1.13942 (Simulation time: 0 hr 22 min 20 sec) 
Heartbeat CPU 0 instructions: 80000001 cycles: 57270359 heartbeat IPC: 0.474619 cumulative IPC: 0.776754 (Simulation time: 0 hr 26 min 9 sec) 
Heartbeat CPU 0 instructions: 90000003 cycles: 72727776 heartbeat IPC: 0.646939 cumulative IPC: 0.739649 (Simulation time: 0 hr 27 min 51 sec) 
Heartbeat CPU 0 instructions: 100000003 cycles: 81944119 heartbeat IPC: 1.08503 cumulative IPC: 0.789939 (Simulation time: 0 hr 28 min 33 sec) 
Finished CPU 0 instructions: 50000000 cycles: 63296046 cumulative IPC: 0.789939 (Simulation time: 0 hr 28 min 33 sec) 

ChampSim completed all CPUs

Region of Interest Statistics

CPU 0 cumulative IPC: 0.789939 instructions: 50000000 cycles: 63296046
L1D TOTAL     ACCESS:   21753499  HIT:   17682381  MISS:    4071118
L1D LOAD      ACCESS:    8656582  HIT:    6639475  MISS:    2017107
L1D RFO       ACCESS:    4648460  HIT:    4541660  MISS:     106800
L1D PREFETCH  ACCESS:    8448457  HIT:    6501246  MISS:    1947211
L1D WRITEBACK ACCESS:          0  HIT:          0  MISS:          0
L1D PREFETCH  REQUESTED:    8691754  ISSUED:    8601582  USEFUL:     107579  USELESS:    1839628
L1D AVERAGE MISS LATENCY: 22.7852 cycles
L1I TOTAL     ACCESS:   15275153  HIT:   13843652  MISS:    1431501
L1I LOAD      ACCESS:   10682440  HIT:   10430262  MISS:     252178
L1I RFO       ACCESS:          0  HIT:          0  MISS:          0
L1I PREFETCH  ACCESS:    4592713  HIT:    3413390  MISS:    1179323
L1I WRITEBACK ACCESS:          0  HIT:          0  MISS:          0
L1I PREFETCH  REQUESTED:    4854654  ISSUED:    4780630  USEFUL:     876402  USELESS:     302801
L1I AVERAGE MISS LATENCY: 33.5641 cycles
L2C TOTAL     ACCESS:    7154684  HIT:    6100978  MISS:    1053706
L2C LOAD      ACCESS:    2189780  HIT:    1873391  MISS:     316389
L2C RFO       ACCESS:     105607  HIT:      57893  MISS:      47714
L2C PREFETCH  ACCESS:    4614270  HIT:    3926071  MISS:     688199
L2C WRITEBACK ACCESS:     245027  HIT:     243623  MISS:       1404
L2C PREFETCH  REQUESTED:    5887876  ISSUED:    5886654  USEFUL:      44077  USELESS:     644232
L2C AVERAGE MISS LATENCY: 56.447 cycles
LLC TOTAL     ACCESS:    2273994  HIT:    2039966  MISS:     234028
LLC LOAD      ACCESS:     315935  HIT:     265422  MISS:      50513
LLC RFO       ACCESS:      47710  HIT:      32943  MISS:      14767
LLC PREFETCH  ACCESS:    1771837  HIT:    1603450  MISS:     168387
LLC WRITEBACK ACCESS:     138512  HIT:     138151  MISS:        361
LLC PREFETCH  REQUESTED:          0  ISSUED:          0  USEFUL:      27065  USELESS:     141360
LLC AVERAGE MISS LATENCY: 170.19 cycles
Major fault: 0 Minor fault: 7603
CPU 0 L1D next line prefetcher final stats

DRAM Statistics
 CHANNEL 0
 RQ ROW_BUFFER_HIT:      46338  ROW_BUFFER_MISS:     187305
 DBUS_CONGESTED:      91915
 WQ ROW_BUFFER_HIT:      11347  ROW_BUFFER_MISS:      41992  FULL:          0

 AVG_CONGESTED_CYCLE: 5

CPU 0 Branch Prediction Accuracy: 98.1603% MPKI: 3.89124 Average ROB Occupancy at Mispredict: 61.2392

Branch types
NOT_BRANCH: 39423755 78.8475%
BRANCH_DIRECT_JUMP: 551642 1.10328%
BRANCH_INDIRECT: 139368 0.278736%
BRANCH_CONDITIONAL: 7920858 15.8417%
BRANCH_DIRECT_CALL: 776072 1.55214%
BRANCH_INDIRECT_CALL: 194644 0.389288%
BRANCH_RETURN: 993311 1.98662%
BRANCH_OTHER: 0 0%

