Initialize SIGNATURE TABLE
ST_SET: 1
ST_WAY: 256
ST_TAG_BIT: 16
ST_TAG_MASK: ffff

Initialize PATTERN TABLE
PT_SET: 512
PT_WAY: 4
SIG_DELTA_BIT: 7
C_SIG_BIT: 4
C_DELTA_BIT: 4

Initialize PREFETCH FILTER
FILTER_SET: 1024

*** ChampSim Multicore Out-of-Order Simulator ***

Warmup Instructions: 50000000
Simulation Instructions: 50000000
Number of CPUs: 1
LLC sets: 2048
LLC ways: 16
Off-chip DRAM Size: 4096 MB Channels: 1 Width: 64-bit Data Rate: 3200 MT/s

CPU 0 runs /home/ykhodke/ChampSim/dpc3_traces/server_014.champsimtrace.xz
LHT KB: 126.25
SCC KB: 1.56
Total KB: 127.81
CPU 0 L1D next line prefetcher
Heartbeat CPU 0 instructions: 10000003 cycles: 3519584 heartbeat IPC: 2.84125 cumulative IPC: 2.84125 (Simulation time: 0 hr 2 min 41 sec) 
Heartbeat CPU 0 instructions: 20000000 cycles: 7106830 heartbeat IPC: 2.78765 cumulative IPC: 2.81419 (Simulation time: 0 hr 6 min 1 sec) 
Heartbeat CPU 0 instructions: 30000001 cycles: 10648357 heartbeat IPC: 2.82364 cumulative IPC: 2.81734 (Simulation time: 0 hr 9 min 24 sec) 
Heartbeat CPU 0 instructions: 40000003 cycles: 14196579 heartbeat IPC: 2.81831 cumulative IPC: 2.81758 (Simulation time: 0 hr 12 min 7 sec) 
Heartbeat CPU 0 instructions: 50000000 cycles: 17745253 heartbeat IPC: 2.81795 cumulative IPC: 2.81765 (Simulation time: 0 hr 15 min 14 sec) 

Warmup complete CPU 0 instructions: 50000001 cycles: 17745254 (Simulation time: 0 hr 15 min 14 sec) 

Heartbeat CPU 0 instructions: 60000000 cycles: 24030054 heartbeat IPC: 1.59114 cumulative IPC: 1.59114 (Simulation time: 0 hr 18 min 50 sec) 
Heartbeat CPU 0 instructions: 70000003 cycles: 30320109 heartbeat IPC: 1.58981 cumulative IPC: 1.59048 (Simulation time: 0 hr 22 min 29 sec) 
*** Reached end of trace for Core: 0 Repeating trace: /home/ykhodke/ChampSim/dpc3_traces/server_014.champsimtrace.xz
Heartbeat CPU 0 instructions: 80000001 cycles: 36874936 heartbeat IPC: 1.52559 cumulative IPC: 1.56824 (Simulation time: 0 hr 25 min 40 sec) 
Heartbeat CPU 0 instructions: 90000003 cycles: 44386549 heartbeat IPC: 1.33127 cumulative IPC: 1.50143 (Simulation time: 0 hr 27 min 52 sec) 
Heartbeat CPU 0 instructions: 100000001 cycles: 50871694 heartbeat IPC: 1.54199 cumulative IPC: 1.50937 (Simulation time: 0 hr 29 min 19 sec) 
Finished CPU 0 instructions: 50000000 cycles: 33126440 cumulative IPC: 1.50937 (Simulation time: 0 hr 29 min 19 sec) 

ChampSim completed all CPUs

Region of Interest Statistics

CPU 0 cumulative IPC: 1.50937 instructions: 50000000 cycles: 33126440
L1D TOTAL     ACCESS:   21629222  HIT:   21558364  MISS:      70858
L1D LOAD      ACCESS:    6674288  HIT:    6647329  MISS:      26959
L1D RFO       ACCESS:    8412883  HIT:    8380816  MISS:      32067
L1D PREFETCH  ACCESS:    6542051  HIT:    6530219  MISS:      11832
L1D WRITEBACK ACCESS:          0  HIT:          0  MISS:          0
L1D PREFETCH  REQUESTED:    6678682  ISSUED:    6569819  USEFUL:       3276  USELESS:       8557
L1D AVERAGE MISS LATENCY: 230.815 cycles
L1I TOTAL     ACCESS:   25566674  HIT:   23781105  MISS:    1785569
L1I LOAD      ACCESS:    9675561  HIT:    9506744  MISS:     168817
L1I RFO       ACCESS:          0  HIT:          0  MISS:          0
L1I PREFETCH  ACCESS:   15891113  HIT:   14274361  MISS:    1616752
L1I WRITEBACK ACCESS:          0  HIT:          0  MISS:          0
L1I PREFETCH  REQUESTED:   17598793  ISSUED:   17598793  USEFUL:    1355764  USELESS:     260977
L1I AVERAGE MISS LATENCY: 13.834 cycles
L2C TOTAL     ACCESS:    2312235  HIT:    2238814  MISS:      73421
L2C LOAD      ACCESS:      37076  HIT:      19186  MISS:      17890
L2C RFO       ACCESS:      32012  HIT:       1048  MISS:      30964
L2C PREFETCH  ACCESS:    2204783  HIT:    2180253  MISS:      24530
L2C WRITEBACK ACCESS:      38364  HIT:      38327  MISS:         37
L2C PREFETCH  REQUESTED:     920535  ISSUED:     920533  USEFUL:       1182  USELESS:      23116
L2C AVERAGE MISS LATENCY: 256.111 cycles
LLC TOTAL     ACCESS:     291153  HIT:     227084  MISS:      64069
LLC LOAD      ACCESS:      16672  HIT:       4399  MISS:      12273
LLC RFO       ACCESS:      30964  HIT:       4981  MISS:      25983
LLC PREFETCH  ACCESS:     208587  HIT:     182865  MISS:      25722
LLC WRITEBACK ACCESS:      34930  HIT:      34839  MISS:         91
LLC PREFETCH  REQUESTED:          0  ISSUED:          0  USEFUL:       3544  USELESS:      24006
LLC AVERAGE MISS LATENCY: 313.436 cycles
Major fault: 0 Minor fault: 1924
CPU 0 L1D next line prefetcher final stats

DRAM Statistics
 CHANNEL 0
 RQ ROW_BUFFER_HIT:      27740  ROW_BUFFER_MISS:      36232
 DBUS_CONGESTED:      64475
 WQ ROW_BUFFER_HIT:       7928  ROW_BUFFER_MISS:      23773  FULL:          0

 AVG_CONGESTED_CYCLE: 6

CPU 0 Branch Prediction Accuracy: 99.7719% MPKI: 0.38824 Average ROB Occupancy at Mispredict: 153.152

Branch types
NOT_BRANCH: 41488973 82.9779%
BRANCH_DIRECT_JUMP: 449417 0.898834%
BRANCH_INDIRECT: 2330 0.00466%
BRANCH_CONDITIONAL: 5470015 10.94%
BRANCH_DIRECT_CALL: 1172186 2.34437%
BRANCH_INDIRECT_CALL: 122383 0.244766%
BRANCH_RETURN: 1294552 2.5891%
BRANCH_OTHER: 0 0%

