Initialize SIGNATURE TABLE
ST_SET: 1
ST_WAY: 256
ST_TAG_BIT: 16
ST_TAG_MASK: ffff

Initialize PATTERN TABLE
PT_SET: 512
PT_WAY: 4
SIG_DELTA_BIT: 7
C_SIG_BIT: 4
C_DELTA_BIT: 4

Initialize PREFETCH FILTER
FILTER_SET: 1024

*** ChampSim Multicore Out-of-Order Simulator ***

Warmup Instructions: 50000000
Simulation Instructions: 50000000
Number of CPUs: 1
LLC sets: 2048
LLC ways: 16
Off-chip DRAM Size: 4096 MB Channels: 1 Width: 64-bit Data Rate: 3200 MT/s

CPU 0 runs /home/ykhodke/ChampSim/dpc3_traces/server_030.champsimtrace.xz
L1I D-JOLT instruction prefetcher has been constructed!
CPU 0 L1D next line prefetcher
Heartbeat CPU 0 instructions: 10000003 cycles: 3507191 heartbeat IPC: 2.85129 cumulative IPC: 2.85129 (Simulation time: 0 hr 3 min 44 sec) 
Heartbeat CPU 0 instructions: 20000003 cycles: 7013925 heartbeat IPC: 2.85166 cumulative IPC: 2.85147 (Simulation time: 0 hr 7 min 23 sec) 
Heartbeat CPU 0 instructions: 30000000 cycles: 10520052 heartbeat IPC: 2.85215 cumulative IPC: 2.8517 (Simulation time: 0 hr 11 min 0 sec) 
Heartbeat CPU 0 instructions: 40000002 cycles: 14026493 heartbeat IPC: 2.8519 cumulative IPC: 2.85175 (Simulation time: 0 hr 14 min 20 sec) 
Heartbeat CPU 0 instructions: 50000002 cycles: 17536175 heartbeat IPC: 2.84926 cumulative IPC: 2.85125 (Simulation time: 0 hr 17 min 23 sec) 

Warmup complete CPU 0 instructions: 50000002 cycles: 17536175 (Simulation time: 0 hr 17 min 23 sec) 

Heartbeat CPU 0 instructions: 60000000 cycles: 24589634 heartbeat IPC: 1.41774 cumulative IPC: 1.41774 (Simulation time: 0 hr 20 min 40 sec) 
Heartbeat CPU 0 instructions: 70000000 cycles: 31636820 heartbeat IPC: 1.41901 cumulative IPC: 1.41837 (Simulation time: 0 hr 23 min 58 sec) 
Heartbeat CPU 0 instructions: 80000001 cycles: 38686226 heartbeat IPC: 1.41856 cumulative IPC: 1.41844 (Simulation time: 0 hr 26 min 49 sec) 
*** Reached end of trace for Core: 0 Repeating trace: /home/ykhodke/ChampSim/dpc3_traces/server_030.champsimtrace.xz
Heartbeat CPU 0 instructions: 90000002 cycles: 45732569 heartbeat IPC: 1.41918 cumulative IPC: 1.41862 (Simulation time: 0 hr 28 min 54 sec) 
Heartbeat CPU 0 instructions: 100000002 cycles: 52773882 heartbeat IPC: 1.42019 cumulative IPC: 1.41893 (Simulation time: 0 hr 30 min 1 sec) 
Finished CPU 0 instructions: 50000000 cycles: 35237707 cumulative IPC: 1.41893 (Simulation time: 0 hr 30 min 1 sec) 

ChampSim completed all CPUs

Region of Interest Statistics

CPU 0 cumulative IPC: 1.41893 instructions: 50000000 cycles: 35237707
L1D TOTAL     ACCESS:   19143119  HIT:   17067119  MISS:    2076000
L1D LOAD      ACCESS:    6762219  HIT:    5707674  MISS:    1054545
L1D RFO       ACCESS:    6167248  HIT:    5880549  MISS:     286699
L1D PREFETCH  ACCESS:    6213652  HIT:    5478896  MISS:     734756
L1D WRITEBACK ACCESS:          0  HIT:          0  MISS:          0
L1D PREFETCH  REQUESTED:    6815995  ISSUED:    6682268  USEFUL:     179284  USELESS:     555565
L1D AVERAGE MISS LATENCY: 19.1759 cycles
L1I TOTAL     ACCESS:   16521423  HIT:   13145941  MISS:    3375482
L1I LOAD      ACCESS:    9826428  HIT:    9785487  MISS:      40941
L1I RFO       ACCESS:          0  HIT:          0  MISS:          0
L1I PREFETCH  ACCESS:    6694995  HIT:    3360454  MISS:    3334541
L1I WRITEBACK ACCESS:          0  HIT:          0  MISS:          0
L1I PREFETCH  REQUESTED:    7109349  ISSUED:    7031499  USEFUL:    2949212  USELESS:     385360
L1I AVERAGE MISS LATENCY: 19.7332 cycles
L2C TOTAL     ACCESS:    7768075  HIT:    6886509  MISS:     881566
L2C LOAD      ACCESS:     927903  HIT:     785455  MISS:     142448
L2C RFO       ACCESS:     283613  HIT:     221156  MISS:      62457
L2C PREFETCH  ACCESS:    5941018  HIT:    5269109  MISS:     671909
L2C WRITEBACK ACCESS:     615541  HIT:     610789  MISS:       4752
L2C PREFETCH  REQUESTED:    5874050  ISSUED:    5862911  USEFUL:       9794  USELESS:     661908
L2C AVERAGE MISS LATENCY: 33.883 cycles
LLC TOTAL     ACCESS:    2676309  HIT:    2655007  MISS:      21302
LLC LOAD      ACCESS:     142178  HIT:     139284  MISS:       2894
LLC RFO       ACCESS:      62439  HIT:      60651  MISS:       1788
LLC PREFETCH  ACCESS:    2352438  HIT:    2335920  MISS:      16518
LLC WRITEBACK ACCESS:     119254  HIT:     119152  MISS:        102
LLC PREFETCH  REQUESTED:          0  ISSUED:          0  USEFUL:        853  USELESS:      14978
LLC AVERAGE MISS LATENCY: 147.576 cycles
Major fault: 0 Minor fault: 2044
CPU 0 L1D next line prefetcher final stats

DRAM Statistics
 CHANNEL 0
 RQ ROW_BUFFER_HIT:       6688  ROW_BUFFER_MISS:      14512
 DBUS_CONGESTED:       6673
 WQ ROW_BUFFER_HIT:        173  ROW_BUFFER_MISS:       2404  FULL:          0

 AVG_CONGESTED_CYCLE: 5

CPU 0 Branch Prediction Accuracy: 99.8445% MPKI: 0.29148 Average ROB Occupancy at Mispredict: 166.633

Branch types
NOT_BRANCH: 40628081 81.2562%
BRANCH_DIRECT_JUMP: 490941 0.981882%
BRANCH_INDIRECT: 175854 0.351708%
BRANCH_CONDITIONAL: 6321415 12.6428%
BRANCH_DIRECT_CALL: 1002072 2.00414%
BRANCH_INDIRECT_CALL: 189783 0.379566%
BRANCH_RETURN: 1191851 2.3837%
BRANCH_OTHER: 0 0%

