Initialize SIGNATURE TABLE
ST_SET: 1
ST_WAY: 256
ST_TAG_BIT: 16
ST_TAG_MASK: ffff

Initialize PATTERN TABLE
PT_SET: 512
PT_WAY: 4
SIG_DELTA_BIT: 7
C_SIG_BIT: 4
C_DELTA_BIT: 4

Initialize PREFETCH FILTER
FILTER_SET: 1024

*** ChampSim Multicore Out-of-Order Simulator ***

Warmup Instructions: 50000000
Simulation Instructions: 50000000
Number of CPUs: 1
LLC sets: 2048
LLC ways: 16
Off-chip DRAM Size: 4096 MB Channels: 1 Width: 64-bit Data Rate: 3200 MT/s

CPU 0 runs /home/ykhodke/ChampSim/dpc3_traces/server_026.champsimtrace.xz
L1I D-JOLT instruction prefetcher has been constructed!
CPU 0 L1D next line prefetcher
Heartbeat CPU 0 instructions: 10000000 cycles: 3521531 heartbeat IPC: 2.83967 cumulative IPC: 2.83967 (Simulation time: 0 hr 3 min 54 sec) 
Heartbeat CPU 0 instructions: 20000002 cycles: 7048820 heartbeat IPC: 2.83504 cumulative IPC: 2.83735 (Simulation time: 0 hr 7 min 11 sec) 
Heartbeat CPU 0 instructions: 30000000 cycles: 10565809 heartbeat IPC: 2.84334 cumulative IPC: 2.83935 (Simulation time: 0 hr 10 min 35 sec) 
Heartbeat CPU 0 instructions: 40000003 cycles: 14091794 heartbeat IPC: 2.83609 cumulative IPC: 2.83853 (Simulation time: 0 hr 14 min 0 sec) 
Heartbeat CPU 0 instructions: 50000000 cycles: 17610619 heartbeat IPC: 2.84186 cumulative IPC: 2.8392 (Simulation time: 0 hr 17 min 10 sec) 

Warmup complete CPU 0 instructions: 50000004 cycles: 17610620 (Simulation time: 0 hr 17 min 10 sec) 

*** Reached end of trace for Core: 0 Repeating trace: /home/ykhodke/ChampSim/dpc3_traces/server_026.champsimtrace.xz
Heartbeat CPU 0 instructions: 60000000 cycles: 24528641 heartbeat IPC: 1.4455 cumulative IPC: 1.4455 (Simulation time: 0 hr 20 min 52 sec) 
Heartbeat CPU 0 instructions: 70000003 cycles: 31341019 heartbeat IPC: 1.46792 cumulative IPC: 1.45662 (Simulation time: 0 hr 24 min 40 sec) 
Heartbeat CPU 0 instructions: 80000002 cycles: 38240176 heartbeat IPC: 1.44945 cumulative IPC: 1.45422 (Simulation time: 0 hr 27 min 42 sec) 
Heartbeat CPU 0 instructions: 90000002 cycles: 45044590 heartbeat IPC: 1.46963 cumulative IPC: 1.45805 (Simulation time: 0 hr 29 min 49 sec) 
Heartbeat CPU 0 instructions: 100000000 cycles: 51926829 heartbeat IPC: 1.45302 cumulative IPC: 1.45704 (Simulation time: 0 hr 30 min 54 sec) 
Finished CPU 0 instructions: 50000000 cycles: 34316210 cumulative IPC: 1.45704 (Simulation time: 0 hr 30 min 54 sec) 

ChampSim completed all CPUs

Region of Interest Statistics

CPU 0 cumulative IPC: 1.45704 instructions: 50000000 cycles: 34316210
L1D TOTAL     ACCESS:   19755441  HIT:   18110475  MISS:    1644966
L1D LOAD      ACCESS:    6926375  HIT:    6197468  MISS:     728907
L1D RFO       ACCESS:    6239670  HIT:    5953388  MISS:     286282
L1D PREFETCH  ACCESS:    6589396  HIT:    5959619  MISS:     629777
L1D WRITEBACK ACCESS:          0  HIT:          0  MISS:          0
L1D PREFETCH  REQUESTED:    6973907  ISSUED:    6831292  USEFUL:     152096  USELESS:     477691
L1D AVERAGE MISS LATENCY: 24.4669 cycles
L1I TOTAL     ACCESS:   15887505  HIT:   12640930  MISS:    3246575
L1I LOAD      ACCESS:    9508751  HIT:    9462592  MISS:      46159
L1I RFO       ACCESS:          0  HIT:          0  MISS:          0
L1I PREFETCH  ACCESS:    6378754  HIT:    3178338  MISS:    3200416
L1I WRITEBACK ACCESS:          0  HIT:          0  MISS:          0
L1I PREFETCH  REQUESTED:    6736730  ISSUED:    6655482  USEFUL:    2750749  USELESS:     449621
L1I AVERAGE MISS LATENCY: 19.9252 cycles
L2C TOTAL     ACCESS:    6767021  HIT:    5838854  MISS:     928167
L2C LOAD      ACCESS:     725226  HIT:     569773  MISS:     155453
L2C RFO       ACCESS:     284528  HIT:     182560  MISS:     101968
L2C PREFETCH  ACCESS:    5196082  HIT:    4530334  MISS:     665748
L2C WRITEBACK ACCESS:     561185  HIT:     556187  MISS:       4998
L2C PREFETCH  REQUESTED:    4425694  ISSUED:    4420477  USEFUL:      13188  USELESS:     652342
L2C AVERAGE MISS LATENCY: 37.2997 cycles
LLC TOTAL     ACCESS:    2377097  HIT:    2340916  MISS:      36181
LLC LOAD      ACCESS:     155165  HIT:     151680  MISS:       3485
LLC RFO       ACCESS:     101965  HIT:      87492  MISS:      14473
LLC PREFETCH  ACCESS:    1945881  HIT:    1927834  MISS:      18047
LLC WRITEBACK ACCESS:     174086  HIT:     173910  MISS:        176
LLC PREFETCH  REQUESTED:          0  ISSUED:          0  USEFUL:       1089  USELESS:      16264
LLC AVERAGE MISS LATENCY: 188.18 cycles
Major fault: 0 Minor fault: 2174
CPU 0 L1D next line prefetcher final stats

DRAM Statistics
 CHANNEL 0
 RQ ROW_BUFFER_HIT:      12426  ROW_BUFFER_MISS:      23578
 DBUS_CONGESTED:      23774
 WQ ROW_BUFFER_HIT:       1591  ROW_BUFFER_MISS:      14814  FULL:          0

 AVG_CONGESTED_CYCLE: 6

CPU 0 Branch Prediction Accuracy: 99.822% MPKI: 0.32584 Average ROB Occupancy at Mispredict: 199.694

Branch types
NOT_BRANCH: 40848584 81.6972%
BRANCH_DIRECT_JUMP: 522045 1.04409%
BRANCH_INDIRECT: 204034 0.408068%
BRANCH_CONDITIONAL: 6212963 12.4259%
BRANCH_DIRECT_CALL: 932393 1.86479%
BRANCH_INDIRECT_CALL: 173764 0.347528%
BRANCH_RETURN: 1106152 2.2123%
BRANCH_OTHER: 0 0%

