Initialize SIGNATURE TABLE
ST_SET: 1
ST_WAY: 256
ST_TAG_BIT: 16
ST_TAG_MASK: ffff

Initialize PATTERN TABLE
PT_SET: 512
PT_WAY: 4
SIG_DELTA_BIT: 7
C_SIG_BIT: 4
C_DELTA_BIT: 4

Initialize PREFETCH FILTER
FILTER_SET: 1024

*** ChampSim Multicore Out-of-Order Simulator ***

Warmup Instructions: 50000000
Simulation Instructions: 50000000
Number of CPUs: 1
LLC sets: 2048
LLC ways: 16
Off-chip DRAM Size: 4096 MB Channels: 1 Width: 64-bit Data Rate: 3200 MT/s

CPU 0 runs /home/ykhodke/ChampSim/dpc3_traces/server_013.champsimtrace.xz
LHT KB: 126.25
SCC KB: 1.56
Total KB: 127.81
CPU 0 L1D next line prefetcher
Heartbeat CPU 0 instructions: 10000000 cycles: 3221964 heartbeat IPC: 3.1037 cumulative IPC: 3.1037 (Simulation time: 0 hr 3 min 24 sec) 
Heartbeat CPU 0 instructions: 20000001 cycles: 6434238 heartbeat IPC: 3.11306 cumulative IPC: 3.10837 (Simulation time: 0 hr 6 min 20 sec) 
Heartbeat CPU 0 instructions: 30000002 cycles: 9649997 heartbeat IPC: 3.10969 cumulative IPC: 3.10881 (Simulation time: 0 hr 9 min 27 sec) 
Heartbeat CPU 0 instructions: 40000002 cycles: 12861370 heartbeat IPC: 3.11393 cumulative IPC: 3.11009 (Simulation time: 0 hr 12 min 53 sec) 
Heartbeat CPU 0 instructions: 50000000 cycles: 16072100 heartbeat IPC: 3.11456 cumulative IPC: 3.11098 (Simulation time: 0 hr 16 min 17 sec) 

Warmup complete CPU 0 instructions: 50000004 cycles: 16072101 (Simulation time: 0 hr 16 min 17 sec) 

Heartbeat CPU 0 instructions: 60000000 cycles: 23787707 heartbeat IPC: 1.29607 cumulative IPC: 1.29607 (Simulation time: 0 hr 19 min 38 sec) 
Heartbeat CPU 0 instructions: 70000002 cycles: 31700638 heartbeat IPC: 1.26375 cumulative IPC: 1.27971 (Simulation time: 0 hr 23 min 17 sec) 
Heartbeat CPU 0 instructions: 80000003 cycles: 39027521 heartbeat IPC: 1.36484 cumulative IPC: 1.30688 (Simulation time: 0 hr 26 min 2 sec) 
Heartbeat CPU 0 instructions: 90000003 cycles: 46531133 heartbeat IPC: 1.33269 cumulative IPC: 1.31324 (Simulation time: 0 hr 28 min 14 sec) 
Heartbeat CPU 0 instructions: 100000003 cycles: 54053463 heartbeat IPC: 1.32938 cumulative IPC: 1.31644 (Simulation time: 0 hr 29 min 50 sec) 
Finished CPU 0 instructions: 50000003 cycles: 37981363 cumulative IPC: 1.31644 (Simulation time: 0 hr 29 min 50 sec) 

ChampSim completed all CPUs

Region of Interest Statistics

CPU 0 cumulative IPC: 1.31644 instructions: 50000003 cycles: 37981363
L1D TOTAL     ACCESS:   17404784  HIT:   16338138  MISS:    1066646
L1D LOAD      ACCESS:    6356050  HIT:    5855342  MISS:     500708
L1D RFO       ACCESS:    4934065  HIT:    4853680  MISS:      80385
L1D PREFETCH  ACCESS:    6114669  HIT:    5629116  MISS:     485553
L1D WRITEBACK ACCESS:          0  HIT:          0  MISS:          0
L1D PREFETCH  REQUESTED:    6391306  ISSUED:    6296051  USEFUL:     133815  USELESS:     351746
L1D AVERAGE MISS LATENCY: 42.9247 cycles
L1I TOTAL     ACCESS:   18796476  HIT:   16001405  MISS:    2795071
L1I LOAD      ACCESS:    8671200  HIT:    8381461  MISS:     289739
L1I RFO       ACCESS:          0  HIT:          0  MISS:          0
L1I PREFETCH  ACCESS:   10125276  HIT:    7619944  MISS:    2505332
L1I WRITEBACK ACCESS:          0  HIT:          0  MISS:          0
L1I PREFETCH  REQUESTED:   14032839  ISSUED:   14032839  USEFUL:    1237565  USELESS:    1267749
L1I AVERAGE MISS LATENCY: 25.2884 cycles
L2C TOTAL     ACCESS:    5003442  HIT:    3575652  MISS:    1427790
L2C LOAD      ACCESS:     540370  HIT:     247967  MISS:     292403
L2C RFO       ACCESS:      78896  HIT:      29926  MISS:      48970
L2C PREFETCH  ACCESS:    4108393  HIT:    3024903  MISS:    1083490
L2C WRITEBACK ACCESS:     275783  HIT:     272856  MISS:       2927
L2C PREFETCH  REQUESTED:    3495085  ISSUED:    3489426  USEFUL:      30206  USELESS:    1052949
L2C AVERAGE MISS LATENCY: 46.8857 cycles
LLC TOTAL     ACCESS:    2632888  HIT:    2462581  MISS:     170307
LLC LOAD      ACCESS:     292280  HIT:     269217  MISS:      23063
LLC RFO       ACCESS:      48957  HIT:      39418  MISS:       9539
LLC PREFETCH  ACCESS:    2114053  HIT:    1976708  MISS:     137345
LLC WRITEBACK ACCESS:     177598  HIT:     177238  MISS:        360
LLC PREFETCH  REQUESTED:          0  ISSUED:          0  USEFUL:      11527  USELESS:     124756
LLC AVERAGE MISS LATENCY: 174.656 cycles
Major fault: 0 Minor fault: 6227
CPU 0 L1D next line prefetcher final stats

DRAM Statistics
 CHANNEL 0
 RQ ROW_BUFFER_HIT:      28296  ROW_BUFFER_MISS:     141643
 DBUS_CONGESTED:      76394
 WQ ROW_BUFFER_HIT:      11737  ROW_BUFFER_MISS:      51489  FULL:          0

 AVG_CONGESTED_CYCLE: 5

CPU 0 Branch Prediction Accuracy: 99.4114% MPKI: 1.0933 Average ROB Occupancy at Mispredict: 115.289

Branch types
NOT_BRANCH: 40713245 81.4265%
BRANCH_DIRECT_JUMP: 463701 0.927402%
BRANCH_INDIRECT: 146544 0.293088%
BRANCH_CONDITIONAL: 6981953 13.9639%
BRANCH_DIRECT_CALL: 665005 1.33001%
BRANCH_INDIRECT_CALL: 165152 0.330304%
BRANCH_RETURN: 864312 1.72862%
BRANCH_OTHER: 0 0%

