Initialize SIGNATURE TABLE
ST_SET: 1
ST_WAY: 256
ST_TAG_BIT: 16
ST_TAG_MASK: ffff

Initialize PATTERN TABLE
PT_SET: 512
PT_WAY: 4
SIG_DELTA_BIT: 7
C_SIG_BIT: 4
C_DELTA_BIT: 4

Initialize PREFETCH FILTER
FILTER_SET: 1024

*** ChampSim Multicore Out-of-Order Simulator ***

Warmup Instructions: 50000000
Simulation Instructions: 50000000
Number of CPUs: 1
LLC sets: 2048
LLC ways: 16
Off-chip DRAM Size: 4096 MB Channels: 1 Width: 64-bit Data Rate: 3200 MT/s

CPU 0 runs /home/ykhodke/ChampSim/dpc3_traces/server_010.champsimtrace.xz
LHT KB: 63.12
SCC KB: 1.56
Total KB: 64.69
CPU 0 L1D next line prefetcher
Heartbeat CPU 0 instructions: 10000000 cycles: 3202369 heartbeat IPC: 3.12269 cumulative IPC: 3.12269 (Simulation time: 0 hr 2 min 42 sec) 
Heartbeat CPU 0 instructions: 20000002 cycles: 6401605 heartbeat IPC: 3.12575 cumulative IPC: 3.12422 (Simulation time: 0 hr 5 min 48 sec) 
Heartbeat CPU 0 instructions: 30000001 cycles: 9604605 heartbeat IPC: 3.12207 cumulative IPC: 3.1235 (Simulation time: 0 hr 8 min 28 sec) 
Heartbeat CPU 0 instructions: 40000000 cycles: 12803545 heartbeat IPC: 3.12604 cumulative IPC: 3.12413 (Simulation time: 0 hr 11 min 15 sec) 
Heartbeat CPU 0 instructions: 50000003 cycles: 16008430 heartbeat IPC: 3.12024 cumulative IPC: 3.12335 (Simulation time: 0 hr 13 min 59 sec) 

Warmup complete CPU 0 instructions: 50000003 cycles: 16008430 (Simulation time: 0 hr 13 min 59 sec) 

Heartbeat CPU 0 instructions: 60000001 cycles: 23970630 heartbeat IPC: 1.25593 cumulative IPC: 1.25593 (Simulation time: 0 hr 16 min 38 sec) 
Heartbeat CPU 0 instructions: 70000000 cycles: 32070908 heartbeat IPC: 1.23453 cumulative IPC: 1.24514 (Simulation time: 0 hr 19 min 17 sec) 
Heartbeat CPU 0 instructions: 80000003 cycles: 40273488 heartbeat IPC: 1.21913 cumulative IPC: 1.23635 (Simulation time: 0 hr 22 min 0 sec) 
Heartbeat CPU 0 instructions: 90000002 cycles: 48105403 heartbeat IPC: 1.27683 cumulative IPC: 1.24622 (Simulation time: 0 hr 24 min 41 sec) 
Heartbeat CPU 0 instructions: 100000003 cycles: 69058296 heartbeat IPC: 0.477261 cumulative IPC: 0.942509 (Simulation time: 0 hr 28 min 21 sec) 
Finished CPU 0 instructions: 50000000 cycles: 53049866 cumulative IPC: 0.942509 (Simulation time: 0 hr 28 min 21 sec) 

ChampSim completed all CPUs

Region of Interest Statistics

CPU 0 cumulative IPC: 0.942509 instructions: 50000000 cycles: 53049866
L1D TOTAL     ACCESS:   20112918  HIT:   16887400  MISS:    3225518
L1D LOAD      ACCESS:    7809793  HIT:    6218195  MISS:    1591598
L1D RFO       ACCESS:    4717944  HIT:    4623400  MISS:      94544
L1D PREFETCH  ACCESS:    7585181  HIT:    6045805  MISS:    1539376
L1D WRITEBACK ACCESS:          0  HIT:          0  MISS:          0
L1D PREFETCH  REQUESTED:    7844215  ISSUED:    7745414  USEFUL:     118586  USELESS:    1420763
L1D AVERAGE MISS LATENCY: 23.7072 cycles
L1I TOTAL     ACCESS:   19017380  HIT:   16887525  MISS:    2129855
L1I LOAD      ACCESS:    9886904  HIT:    9477575  MISS:     409329
L1I RFO       ACCESS:          0  HIT:          0  MISS:          0
L1I PREFETCH  ACCESS:    9130476  HIT:    7409950  MISS:    1720526
L1I WRITEBACK ACCESS:          0  HIT:          0  MISS:          0
L1I PREFETCH  REQUESTED:   15394997  ISSUED:   15394997  USEFUL:     862534  USELESS:     857931
L1I AVERAGE MISS LATENCY: 26.7869 cycles
L2C TOTAL     ACCESS:    6915802  HIT:    5559242  MISS:    1356560
L2C LOAD      ACCESS:    1644974  HIT:    1376842  MISS:     268132
L2C RFO       ACCESS:      93378  HIT:      46788  MISS:      46590
L2C PREFETCH  ACCESS:    4912086  HIT:    3872340  MISS:    1039746
L2C WRITEBACK ACCESS:     265364  HIT:     263272  MISS:       2092
L2C PREFETCH  REQUESTED:    5677191  ISSUED:    5673280  USEFUL:      31107  USELESS:    1009230
L2C AVERAGE MISS LATENCY: 50.2766 cycles
LLC TOTAL     ACCESS:    2524092  HIT:    2337266  MISS:     186826
LLC LOAD      ACCESS:     268045  HIT:     243281  MISS:      24764
LLC RFO       ACCESS:      46584  HIT:      35801  MISS:      10783
LLC PREFETCH  ACCESS:    2053271  HIT:    1902263  MISS:     151008
LLC WRITEBACK ACCESS:     156192  HIT:     155921  MISS:        271
LLC PREFETCH  REQUESTED:          0  ISSUED:          0  USEFUL:      10624  USELESS:     140198
LLC AVERAGE MISS LATENCY: 174.175 cycles
Major fault: 0 Minor fault: 5625
CPU 0 L1D next line prefetcher final stats

DRAM Statistics
 CHANNEL 0
 RQ ROW_BUFFER_HIT:      31094  ROW_BUFFER_MISS:     155440
 DBUS_CONGESTED:      79296
 WQ ROW_BUFFER_HIT:      11036  ROW_BUFFER_MISS:      46558  FULL:          0

 AVG_CONGESTED_CYCLE: 5

CPU 0 Branch Prediction Accuracy: 99.5528% MPKI: 0.89798 Average ROB Occupancy at Mispredict: 115.002

Branch types
NOT_BRANCH: 39958791 79.9176%
BRANCH_DIRECT_JUMP: 449946 0.899892%
BRANCH_INDIRECT: 140210 0.28042%
BRANCH_CONDITIONAL: 7679677 15.3594%
BRANCH_DIRECT_CALL: 701578 1.40316%
BRANCH_INDIRECT_CALL: 168971 0.337942%
BRANCH_RETURN: 900560 1.80112%
BRANCH_OTHER: 0 0%

