Initialize SIGNATURE TABLE
ST_SET: 1
ST_WAY: 256
ST_TAG_BIT: 16
ST_TAG_MASK: ffff

Initialize PATTERN TABLE
PT_SET: 512
PT_WAY: 4
SIG_DELTA_BIT: 7
C_SIG_BIT: 4
C_DELTA_BIT: 4

Initialize PREFETCH FILTER
FILTER_SET: 1024

*** ChampSim Multicore Out-of-Order Simulator ***

Warmup Instructions: 50000000
Simulation Instructions: 50000000
Number of CPUs: 1
LLC sets: 2048
LLC ways: 16
Off-chip DRAM Size: 4096 MB Channels: 1 Width: 64-bit Data Rate: 3200 MT/s

CPU 0 runs /home/ykhodke/ChampSim/dpc3_traces/server_030.champsimtrace.xz
L1I D-JOLT instruction prefetcher has been constructed!
CPU 0 L1D next line prefetcher
Heartbeat CPU 0 instructions: 10000003 cycles: 3504043 heartbeat IPC: 2.85385 cumulative IPC: 2.85385 (Simulation time: 0 hr 3 min 44 sec) 
Heartbeat CPU 0 instructions: 20000003 cycles: 7007278 heartbeat IPC: 2.8545 cumulative IPC: 2.85418 (Simulation time: 0 hr 7 min 36 sec) 
Heartbeat CPU 0 instructions: 30000000 cycles: 10510586 heartbeat IPC: 2.85444 cumulative IPC: 2.85427 (Simulation time: 0 hr 11 min 38 sec) 
Heartbeat CPU 0 instructions: 40000002 cycles: 14014471 heartbeat IPC: 2.85398 cumulative IPC: 2.85419 (Simulation time: 0 hr 15 min 26 sec) 
Heartbeat CPU 0 instructions: 50000002 cycles: 17521032 heartbeat IPC: 2.8518 cumulative IPC: 2.85371 (Simulation time: 0 hr 18 min 35 sec) 

Warmup complete CPU 0 instructions: 50000002 cycles: 17521032 (Simulation time: 0 hr 18 min 35 sec) 

Heartbeat CPU 0 instructions: 60000000 cycles: 24563374 heartbeat IPC: 1.41998 cumulative IPC: 1.41998 (Simulation time: 0 hr 21 min 44 sec) 
Heartbeat CPU 0 instructions: 70000000 cycles: 31609678 heartbeat IPC: 1.41918 cumulative IPC: 1.41958 (Simulation time: 0 hr 24 min 58 sec) 
Heartbeat CPU 0 instructions: 80000001 cycles: 38656084 heartbeat IPC: 1.41916 cumulative IPC: 1.41944 (Simulation time: 0 hr 27 min 57 sec) 
*** Reached end of trace for Core: 0 Repeating trace: /home/ykhodke/ChampSim/dpc3_traces/server_030.champsimtrace.xz
Heartbeat CPU 0 instructions: 90000002 cycles: 45697545 heartbeat IPC: 1.42016 cumulative IPC: 1.41962 (Simulation time: 0 hr 30 min 4 sec) 
Heartbeat CPU 0 instructions: 100000002 cycles: 52735932 heartbeat IPC: 1.42078 cumulative IPC: 1.41985 (Simulation time: 0 hr 31 min 2 sec) 
Finished CPU 0 instructions: 50000000 cycles: 35214900 cumulative IPC: 1.41985 (Simulation time: 0 hr 31 min 2 sec) 

ChampSim completed all CPUs

Region of Interest Statistics

CPU 0 cumulative IPC: 1.41985 instructions: 50000000 cycles: 35214900
L1D TOTAL     ACCESS:   19144193  HIT:   17068309  MISS:    2075884
L1D LOAD      ACCESS:    6761087  HIT:    5708064  MISS:    1053023
L1D RFO       ACCESS:    6168966  HIT:    5882619  MISS:     286347
L1D PREFETCH  ACCESS:    6214140  HIT:    5477626  MISS:     736514
L1D WRITEBACK ACCESS:          0  HIT:          0  MISS:          0
L1D PREFETCH  REQUESTED:    6815414  ISSUED:    6681331  USEFUL:     180952  USELESS:     555655
L1D AVERAGE MISS LATENCY: 19.2593 cycles
L1I TOTAL     ACCESS:   16870129  HIT:   13374553  MISS:    3495576
L1I LOAD      ACCESS:    9832165  HIT:    9792652  MISS:      39513
L1I RFO       ACCESS:          0  HIT:          0  MISS:          0
L1I PREFETCH  ACCESS:    7037964  HIT:    3581901  MISS:    3456063
L1I WRITEBACK ACCESS:          0  HIT:          0  MISS:          0
L1I PREFETCH  REQUESTED:    7436645  ISSUED:    7341385  USEFUL:    2959290  USELESS:     496816
L1I AVERAGE MISS LATENCY: 19.4359 cycles
L2C TOTAL     ACCESS:    7957004  HIT:    7086816  MISS:     870188
L2C LOAD      ACCESS:     924390  HIT:     779342  MISS:     145048
L2C RFO       ACCESS:     283589  HIT:     215562  MISS:      68027
L2C PREFETCH  ACCESS:    6133522  HIT:    5480742  MISS:     652780
L2C WRITEBACK ACCESS:     615503  HIT:     611170  MISS:       4333
L2C PREFETCH  REQUESTED:    6315238  ISSUED:    6301532  USEFUL:      10978  USELESS:     641696
L2C AVERAGE MISS LATENCY: 33.7829 cycles
LLC TOTAL     ACCESS:    2515917  HIT:    2496446  MISS:      19471
LLC LOAD      ACCESS:     144632  HIT:     141857  MISS:       2775
LLC RFO       ACCESS:      68025  HIT:      66294  MISS:       1731
LLC PREFETCH  ACCESS:    2177431  HIT:    2162538  MISS:      14893
LLC WRITEBACK ACCESS:     125829  HIT:     125757  MISS:         72
LLC PREFETCH  REQUESTED:          0  ISSUED:          0  USEFUL:        835  USELESS:      13393
LLC AVERAGE MISS LATENCY: 146.64 cycles
Major fault: 0 Minor fault: 2044
CPU 0 L1D next line prefetcher final stats

DRAM Statistics
 CHANNEL 0
 RQ ROW_BUFFER_HIT:       6169  ROW_BUFFER_MISS:      13230
 DBUS_CONGESTED:       6495
 WQ ROW_BUFFER_HIT:        154  ROW_BUFFER_MISS:       2263  FULL:          0

 AVG_CONGESTED_CYCLE: 5

CPU 0 Branch Prediction Accuracy: 99.8445% MPKI: 0.29148 Average ROB Occupancy at Mispredict: 167.028

Branch types
NOT_BRANCH: 40628081 81.2562%
BRANCH_DIRECT_JUMP: 490941 0.981882%
BRANCH_INDIRECT: 175854 0.351708%
BRANCH_CONDITIONAL: 6321415 12.6428%
BRANCH_DIRECT_CALL: 1002072 2.00414%
BRANCH_INDIRECT_CALL: 189783 0.379566%
BRANCH_RETURN: 1191851 2.3837%
BRANCH_OTHER: 0 0%

