Initialize SIGNATURE TABLE
ST_SET: 1
ST_WAY: 256
ST_TAG_BIT: 16
ST_TAG_MASK: ffff

Initialize PATTERN TABLE
PT_SET: 512
PT_WAY: 4
SIG_DELTA_BIT: 7
C_SIG_BIT: 4
C_DELTA_BIT: 4

Initialize PREFETCH FILTER
FILTER_SET: 1024

*** ChampSim Multicore Out-of-Order Simulator ***

Warmup Instructions: 50000000
Simulation Instructions: 50000000
Number of CPUs: 1
LLC sets: 2048
LLC ways: 16
Off-chip DRAM Size: 4096 MB Channels: 1 Width: 64-bit Data Rate: 3200 MT/s

CPU 0 runs /home/ykhodke/ChampSim/dpc3_traces/server_015.champsimtrace.xz
LHT KB: 126.25
SCC KB: 1.56
Total KB: 127.81
CPU 0 L1D next line prefetcher
Heartbeat CPU 0 instructions: 10000002 cycles: 3519428 heartbeat IPC: 2.84137 cumulative IPC: 2.84137 (Simulation time: 0 hr 3 min 16 sec) 
Heartbeat CPU 0 instructions: 20000001 cycles: 7107146 heartbeat IPC: 2.78729 cumulative IPC: 2.81407 (Simulation time: 0 hr 6 min 38 sec) 
Heartbeat CPU 0 instructions: 30000001 cycles: 10646150 heartbeat IPC: 2.82565 cumulative IPC: 2.81792 (Simulation time: 0 hr 9 min 38 sec) 
Heartbeat CPU 0 instructions: 40000002 cycles: 14194191 heartbeat IPC: 2.81846 cumulative IPC: 2.81805 (Simulation time: 0 hr 12 min 37 sec) 
Heartbeat CPU 0 instructions: 50000002 cycles: 17742451 heartbeat IPC: 2.81828 cumulative IPC: 2.8181 (Simulation time: 0 hr 15 min 22 sec) 

Warmup complete CPU 0 instructions: 50000002 cycles: 17742451 (Simulation time: 0 hr 15 min 22 sec) 

Heartbeat CPU 0 instructions: 60000002 cycles: 24046316 heartbeat IPC: 1.58633 cumulative IPC: 1.58633 (Simulation time: 0 hr 18 min 14 sec) 
Heartbeat CPU 0 instructions: 70000003 cycles: 30362713 heartbeat IPC: 1.58318 cumulative IPC: 1.58475 (Simulation time: 0 hr 21 min 2 sec) 
Heartbeat CPU 0 instructions: 80000000 cycles: 36679035 heartbeat IPC: 1.5832 cumulative IPC: 1.58423 (Simulation time: 0 hr 23 min 54 sec) 
Heartbeat CPU 0 instructions: 90000000 cycles: 42998843 heartbeat IPC: 1.58233 cumulative IPC: 1.58376 (Simulation time: 0 hr 27 min 3 sec) 
Heartbeat CPU 0 instructions: 100000002 cycles: 49315686 heartbeat IPC: 1.58307 cumulative IPC: 1.58362 (Simulation time: 0 hr 29 min 6 sec) 
Finished CPU 0 instructions: 50000000 cycles: 31573235 cumulative IPC: 1.58362 (Simulation time: 0 hr 29 min 6 sec) 

ChampSim completed all CPUs

Region of Interest Statistics

CPU 0 cumulative IPC: 1.58362 instructions: 50000000 cycles: 31573235
L1D TOTAL     ACCESS:   21835694  HIT:   21818924  MISS:      16770
L1D LOAD      ACCESS:    6693988  HIT:    6693455  MISS:        533
L1D RFO       ACCESS:    8561582  HIT:    8561486  MISS:         96
L1D PREFETCH  ACCESS:    6580124  HIT:    6563983  MISS:      16141
L1D WRITEBACK ACCESS:          0  HIT:          0  MISS:          0
L1D PREFETCH  REQUESTED:    6694047  ISSUED:    6584502  USEFUL:         85  USELESS:      16053
L1D AVERAGE MISS LATENCY: 16.09 cycles
L1I TOTAL     ACCESS:   24270546  HIT:   22698703  MISS:    1571843
L1I LOAD      ACCESS:    9678305  HIT:    9439603  MISS:     238702
L1I RFO       ACCESS:          0  HIT:          0  MISS:          0
L1I PREFETCH  ACCESS:   14592241  HIT:   13259100  MISS:    1333141
L1I WRITEBACK ACCESS:          0  HIT:          0  MISS:          0
L1I PREFETCH  REQUESTED:   16410515  ISSUED:   16410515  USEFUL:    1202832  USELESS:     130280
L1I AVERAGE MISS LATENCY: 12.0879 cycles
L2C TOTAL     ACCESS:    1867729  HIT:    1867402  MISS:        327
L2C LOAD      ACCESS:      16337  HIT:      16273  MISS:         64
L2C RFO       ACCESS:         94  HIT:         92  MISS:          2
L2C PREFETCH  ACCESS:    1850948  HIT:    1850688  MISS:        260
L2C WRITEBACK ACCESS:        350  HIT:        349  MISS:          1
L2C PREFETCH  REQUESTED:     623859  ISSUED:     623857  USEFUL:         71  USELESS:        147
L2C AVERAGE MISS LATENCY: 89.8226 cycles
LLC TOTAL     ACCESS:     181577  HIT:     180927  MISS:        650
LLC LOAD      ACCESS:         64  HIT:         48  MISS:         16
LLC RFO       ACCESS:          2  HIT:          0  MISS:          2
LLC PREFETCH  ACCESS:     181397  HIT:     180765  MISS:        632
LLC WRITEBACK ACCESS:        114  HIT:        114  MISS:          0
LLC PREFETCH  REQUESTED:          0  ISSUED:          0  USEFUL:          6  USELESS:        201
LLC AVERAGE MISS LATENCY: 230.157 cycles
Major fault: 0 Minor fault: 1899
CPU 0 L1D next line prefetcher final stats

DRAM Statistics
 CHANNEL 0
 RQ ROW_BUFFER_HIT:         58  ROW_BUFFER_MISS:        592
 DBUS_CONGESTED:        247
 WQ ROW_BUFFER_HIT:         32  ROW_BUFFER_MISS:        390  FULL:          0

 AVG_CONGESTED_CYCLE: 6

CPU 0 Branch Prediction Accuracy: 99.9085% MPKI: 0.15428 Average ROB Occupancy at Mispredict: 283.472

Branch types
NOT_BRANCH: 41573121 83.1462%
BRANCH_DIRECT_JUMP: 436254 0.872508%
BRANCH_INDIRECT: 0 0%
BRANCH_CONDITIONAL: 5395894 10.7918%
BRANCH_DIRECT_CALL: 1173390 2.34678%
BRANCH_INDIRECT_CALL: 123911 0.247822%
BRANCH_RETURN: 1297311 2.59462%
BRANCH_OTHER: 0 0%

