Initialize SIGNATURE TABLE
ST_SET: 1
ST_WAY: 256
ST_TAG_BIT: 16
ST_TAG_MASK: ffff

Initialize PATTERN TABLE
PT_SET: 512
PT_WAY: 4
SIG_DELTA_BIT: 7
C_SIG_BIT: 4
C_DELTA_BIT: 4

Initialize PREFETCH FILTER
FILTER_SET: 1024

*** ChampSim Multicore Out-of-Order Simulator ***

Warmup Instructions: 50000000
Simulation Instructions: 50000000
Number of CPUs: 1
LLC sets: 2048
LLC ways: 16
Off-chip DRAM Size: 4096 MB Channels: 1 Width: 64-bit Data Rate: 3200 MT/s

CPU 0 runs /home/ykhodke/ChampSim/dpc3_traces/server_027.champsimtrace.xz
LHT KB: 126.25
SCC KB: 1.56
Total KB: 127.81
CPU 0 L1D next line prefetcher
Heartbeat CPU 0 instructions: 10000001 cycles: 3526381 heartbeat IPC: 2.83577 cumulative IPC: 2.83577 (Simulation time: 0 hr 3 min 32 sec) 
Heartbeat CPU 0 instructions: 20000001 cycles: 7056749 heartbeat IPC: 2.83257 cumulative IPC: 2.83417 (Simulation time: 0 hr 6 min 52 sec) 
Heartbeat CPU 0 instructions: 30000002 cycles: 10582238 heartbeat IPC: 2.83649 cumulative IPC: 2.83494 (Simulation time: 0 hr 10 min 15 sec) 
Heartbeat CPU 0 instructions: 40000003 cycles: 14113431 heartbeat IPC: 2.8319 cumulative IPC: 2.83418 (Simulation time: 0 hr 13 min 28 sec) 
Heartbeat CPU 0 instructions: 50000001 cycles: 17638370 heartbeat IPC: 2.83693 cumulative IPC: 2.83473 (Simulation time: 0 hr 16 min 46 sec) 

Warmup complete CPU 0 instructions: 50000001 cycles: 17638370 (Simulation time: 0 hr 16 min 46 sec) 

Heartbeat CPU 0 instructions: 60000002 cycles: 24608023 heartbeat IPC: 1.43479 cumulative IPC: 1.43479 (Simulation time: 0 hr 20 min 7 sec) 
Heartbeat CPU 0 instructions: 70000003 cycles: 31527811 heartbeat IPC: 1.44513 cumulative IPC: 1.43994 (Simulation time: 0 hr 23 min 36 sec) 
Heartbeat CPU 0 instructions: 80000002 cycles: 38467493 heartbeat IPC: 1.44099 cumulative IPC: 1.44029 (Simulation time: 0 hr 26 min 59 sec) 
Heartbeat CPU 0 instructions: 90000001 cycles: 45481683 heartbeat IPC: 1.42568 cumulative IPC: 1.43661 (Simulation time: 0 hr 29 min 19 sec) 
Heartbeat CPU 0 instructions: 100000002 cycles: 52390266 heartbeat IPC: 1.44747 cumulative IPC: 1.43877 (Simulation time: 0 hr 30 min 25 sec) 
Finished CPU 0 instructions: 50000001 cycles: 34751896 cumulative IPC: 1.43877 (Simulation time: 0 hr 30 min 25 sec) 

ChampSim completed all CPUs

Region of Interest Statistics

CPU 0 cumulative IPC: 1.43877 instructions: 50000001 cycles: 34751896
L1D TOTAL     ACCESS:   20090094  HIT:   18488282  MISS:    1601812
L1D LOAD      ACCESS:    7041659  HIT:    6350365  MISS:     691294
L1D RFO       ACCESS:    6289320  HIT:    6004054  MISS:     285266
L1D PREFETCH  ACCESS:    6759115  HIT:    6133863  MISS:     625252
L1D WRITEBACK ACCESS:          0  HIT:          0  MISS:          0
L1D PREFETCH  REQUESTED:    7088066  ISSUED:    6964186  USEFUL:     150232  USELESS:     475032
L1D AVERAGE MISS LATENCY: 23.8591 cycles
L1I TOTAL     ACCESS:   22466209  HIT:   17840968  MISS:    4625241
L1I LOAD      ACCESS:    9289148  HIT:    8666813  MISS:     622335
L1I RFO       ACCESS:          0  HIT:          0  MISS:          0
L1I PREFETCH  ACCESS:   13177061  HIT:    9174155  MISS:    4002906
L1I WRITEBACK ACCESS:          0  HIT:          0  MISS:          0
L1I PREFETCH  REQUESTED:   15724506  ISSUED:   15724506  USEFUL:    2298133  USELESS:    1704695
L1I AVERAGE MISS LATENCY: 14.9648 cycles
L2C TOTAL     ACCESS:    8462839  HIT:    7694340  MISS:     768499
L2C LOAD      ACCESS:     736251  HIT:     597102  MISS:     139149
L2C RFO       ACCESS:     283541  HIT:     195028  MISS:      88513
L2C PREFETCH  ACCESS:    6883830  HIT:    6351620  MISS:     532210
L2C WRITEBACK ACCESS:     559217  HIT:     550590  MISS:       8627
L2C PREFETCH  REQUESTED:    4803511  ISSUED:    4798114  USEFUL:      17593  USELESS:     513677
L2C AVERAGE MISS LATENCY: 37.5508 cycles
LLC TOTAL     ACCESS:    2191125  HIT:    2158254  MISS:      32871
LLC LOAD      ACCESS:     138949  HIT:     135785  MISS:       3164
LLC RFO       ACCESS:      88512  HIT:      74588  MISS:      13924
LLC PREFETCH  ACCESS:    1811511  HIT:    1795881  MISS:      15630
LLC WRITEBACK ACCESS:     152153  HIT:     152000  MISS:        153
LLC PREFETCH  REQUESTED:          0  ISSUED:          0  USEFUL:       1127  USELESS:      13900
LLC AVERAGE MISS LATENCY: 186.326 cycles
Major fault: 0 Minor fault: 2491
CPU 0 L1D next line prefetcher final stats

DRAM Statistics
 CHANNEL 0
 RQ ROW_BUFFER_HIT:      10982  ROW_BUFFER_MISS:      21735
 DBUS_CONGESTED:      22514
 WQ ROW_BUFFER_HIT:       1619  ROW_BUFFER_MISS:      14589  FULL:          0

 AVG_CONGESTED_CYCLE: 6

CPU 0 Branch Prediction Accuracy: 99.8082% MPKI: 0.35064 Average ROB Occupancy at Mispredict: 164.881

Branch types
NOT_BRANCH: 40857507 81.715%
BRANCH_DIRECT_JUMP: 526635 1.05327%
BRANCH_INDIRECT: 205902 0.411804%
BRANCH_CONDITIONAL: 6184049 12.3681%
BRANCH_DIRECT_CALL: 938468 1.87694%
BRANCH_INDIRECT_CALL: 174486 0.348972%
BRANCH_RETURN: 1112959 2.22592%
BRANCH_OTHER: 0 0%

