Initialize SIGNATURE TABLE
ST_SET: 1
ST_WAY: 256
ST_TAG_BIT: 16
ST_TAG_MASK: ffff

Initialize PATTERN TABLE
PT_SET: 512
PT_WAY: 4
SIG_DELTA_BIT: 7
C_SIG_BIT: 4
C_DELTA_BIT: 4

Initialize PREFETCH FILTER
FILTER_SET: 1024

*** ChampSim Multicore Out-of-Order Simulator ***

Warmup Instructions: 50000000
Simulation Instructions: 50000000
Number of CPUs: 1
LLC sets: 2048
LLC ways: 16
Off-chip DRAM Size: 4096 MB Channels: 1 Width: 64-bit Data Rate: 3200 MT/s

CPU 0 runs /home/ykhodke/ChampSim/dpc3_traces/server_022.champsimtrace.xz
L1I D-JOLT instruction prefetcher has been constructed!
CPU 0 L1D next line prefetcher
Heartbeat CPU 0 instructions: 10000002 cycles: 3624895 heartbeat IPC: 2.7587 cumulative IPC: 2.7587 (Simulation time: 0 hr 3 min 24 sec) 
Heartbeat CPU 0 instructions: 20000001 cycles: 7256055 heartbeat IPC: 2.75394 cumulative IPC: 2.75632 (Simulation time: 0 hr 6 min 49 sec) 
Heartbeat CPU 0 instructions: 30000003 cycles: 10880870 heartbeat IPC: 2.75876 cumulative IPC: 2.75713 (Simulation time: 0 hr 10 min 25 sec) 
Heartbeat CPU 0 instructions: 40000003 cycles: 14513134 heartbeat IPC: 2.7531 cumulative IPC: 2.75612 (Simulation time: 0 hr 14 min 8 sec) 
Heartbeat CPU 0 instructions: 50000002 cycles: 18135384 heartbeat IPC: 2.76071 cumulative IPC: 2.75704 (Simulation time: 0 hr 17 min 29 sec) 

Warmup complete CPU 0 instructions: 50000002 cycles: 18135384 (Simulation time: 0 hr 17 min 29 sec) 

Heartbeat CPU 0 instructions: 60000000 cycles: 35018746 heartbeat IPC: 0.592299 cumulative IPC: 0.592299 (Simulation time: 0 hr 21 min 40 sec) 
Heartbeat CPU 0 instructions: 70000001 cycles: 52030590 heartbeat IPC: 0.587826 cumulative IPC: 0.590054 (Simulation time: 0 hr 25 min 32 sec) 
Heartbeat CPU 0 instructions: 80000001 cycles: 68864333 heartbeat IPC: 0.594045 cumulative IPC: 0.591378 (Simulation time: 0 hr 29 min 3 sec) 
Heartbeat CPU 0 instructions: 90000003 cycles: 85880560 heartbeat IPC: 0.587674 cumulative IPC: 0.590448 (Simulation time: 0 hr 30 min 49 sec) 
Heartbeat CPU 0 instructions: 100000003 cycles: 102761925 heartbeat IPC: 0.592369 cumulative IPC: 0.590831 (Simulation time: 0 hr 31 min 32 sec) 
Finished CPU 0 instructions: 50000001 cycles: 84626541 cumulative IPC: 0.590831 (Simulation time: 0 hr 31 min 32 sec) 

ChampSim completed all CPUs

Region of Interest Statistics

CPU 0 cumulative IPC: 0.590831 instructions: 50000001 cycles: 84626541
L1D TOTAL     ACCESS:   18691964  HIT:   16481267  MISS:    2210697
L1D LOAD      ACCESS:    7051338  HIT:    6345199  MISS:     706139
L1D RFO       ACCESS:    5887693  HIT:    4908210  MISS:     979483
L1D PREFETCH  ACCESS:    5752933  HIT:    5227858  MISS:     525075
L1D WRITEBACK ACCESS:          0  HIT:          0  MISS:          0
L1D PREFETCH  REQUESTED:    7093671  ISSUED:    6885669  USEFUL:     203923  USELESS:     321157
L1D AVERAGE MISS LATENCY: 182.231 cycles
L1I TOTAL     ACCESS:   19190179  HIT:   15565237  MISS:    3624942
L1I LOAD      ACCESS:   10162893  HIT:   10125395  MISS:      37498
L1I RFO       ACCESS:          0  HIT:          0  MISS:          0
L1I PREFETCH  ACCESS:    9027286  HIT:    5439842  MISS:    3587444
L1I WRITEBACK ACCESS:          0  HIT:          0  MISS:          0
L1I PREFETCH  REQUESTED:    9751587  ISSUED:    9656833  USEFUL:    2804904  USELESS:     782552
L1I AVERAGE MISS LATENCY: 17.5796 cycles
L2C TOTAL     ACCESS:    8509743  HIT:    6637187  MISS:    1872556
L2C LOAD      ACCESS:     510277  HIT:     262062  MISS:     248215
L2C RFO       ACCESS:     978957  HIT:      20064  MISS:     958893
L2C PREFETCH  ACCESS:    5835348  HIT:    5173276  MISS:     662072
L2C WRITEBACK ACCESS:    1185161  HIT:    1181785  MISS:       3376
L2C PREFETCH  REQUESTED:    5029500  ISSUED:    5024219  USEFUL:      19494  USELESS:     642533
L2C AVERAGE MISS LATENCY: 221.337 cycles
LLC TOTAL     ACCESS:    4299246  HIT:    2884925  MISS:    1414321
LLC LOAD      ACCESS:     248177  HIT:     172565  MISS:      75612
LLC RFO       ACCESS:     958891  HIT:     141365  MISS:     817526
LLC PREFETCH  ACCESS:    1972881  HIT:    1453911  MISS:     518970
LLC WRITEBACK ACCESS:    1119297  HIT:    1117084  MISS:       2213
LLC PREFETCH  REQUESTED:          0  ISSUED:          0  USEFUL:      29408  USELESS:     490319
LLC AVERAGE MISS LATENCY: 296.722 cycles
Major fault: 0 Minor fault: 23509
CPU 0 L1D next line prefetcher final stats

DRAM Statistics
 CHANNEL 0
 RQ ROW_BUFFER_HIT:     403162  ROW_BUFFER_MISS:    1008617
 DBUS_CONGESTED:    1457109
 WQ ROW_BUFFER_HIT:     261764  ROW_BUFFER_MISS:     642265  FULL:          0

 AVG_CONGESTED_CYCLE: 6

CPU 0 Branch Prediction Accuracy: 99.8317% MPKI: 0.27564 Average ROB Occupancy at Mispredict: 222.395

Branch types
NOT_BRANCH: 41811143 83.6223%
BRANCH_DIRECT_JUMP: 445742 0.891484%
BRANCH_INDIRECT: 48876 0.097752%
BRANCH_CONDITIONAL: 5859406 11.7188%
BRANCH_DIRECT_CALL: 758267 1.51653%
BRANCH_INDIRECT_CALL: 159103 0.318206%
BRANCH_RETURN: 917372 1.83474%
BRANCH_OTHER: 0 0%

