Initialize SIGNATURE TABLE
ST_SET: 1
ST_WAY: 256
ST_TAG_BIT: 16
ST_TAG_MASK: ffff

Initialize PATTERN TABLE
PT_SET: 512
PT_WAY: 4
SIG_DELTA_BIT: 7
C_SIG_BIT: 4
C_DELTA_BIT: 4

Initialize PREFETCH FILTER
FILTER_SET: 1024

*** ChampSim Multicore Out-of-Order Simulator ***

Warmup Instructions: 50000000
Simulation Instructions: 50000000
Number of CPUs: 1
LLC sets: 2048
LLC ways: 16
Off-chip DRAM Size: 4096 MB Channels: 1 Width: 64-bit Data Rate: 3200 MT/s

CPU 0 runs /home/ykhodke/ChampSim/dpc3_traces/server_036.champsimtrace.xz
LHT KB: 126.25
SCC KB: 1.56
Total KB: 127.81
CPU 0 L1D next line prefetcher
Heartbeat CPU 0 instructions: 10000000 cycles: 3459080 heartbeat IPC: 2.89094 cumulative IPC: 2.89094 (Simulation time: 0 hr 3 min 49 sec) 
Heartbeat CPU 0 instructions: 20000000 cycles: 6924875 heartbeat IPC: 2.88534 cumulative IPC: 2.88814 (Simulation time: 0 hr 7 min 24 sec) 
Heartbeat CPU 0 instructions: 30000003 cycles: 10433489 heartbeat IPC: 2.85013 cumulative IPC: 2.87536 (Simulation time: 0 hr 10 min 58 sec) 
Heartbeat CPU 0 instructions: 40000000 cycles: 13895992 heartbeat IPC: 2.88808 cumulative IPC: 2.87853 (Simulation time: 0 hr 14 min 9 sec) 
Heartbeat CPU 0 instructions: 50000002 cycles: 17357701 heartbeat IPC: 2.88875 cumulative IPC: 2.88057 (Simulation time: 0 hr 17 min 29 sec) 

Warmup complete CPU 0 instructions: 50000002 cycles: 17357701 (Simulation time: 0 hr 17 min 29 sec) 

Heartbeat CPU 0 instructions: 60000000 cycles: 23028277 heartbeat IPC: 1.76349 cumulative IPC: 1.76349 (Simulation time: 0 hr 20 min 45 sec) 
Heartbeat CPU 0 instructions: 70000001 cycles: 28654588 heartbeat IPC: 1.77736 cumulative IPC: 1.7704 (Simulation time: 0 hr 24 min 8 sec) 
Heartbeat CPU 0 instructions: 80000001 cycles: 34306370 heartbeat IPC: 1.76935 cumulative IPC: 1.77005 (Simulation time: 0 hr 26 min 58 sec) 
Heartbeat CPU 0 instructions: 90000002 cycles: 39933899 heartbeat IPC: 1.77698 cumulative IPC: 1.77178 (Simulation time: 0 hr 28 min 57 sec) 
Heartbeat CPU 0 instructions: 100000001 cycles: 45558876 heartbeat IPC: 1.77778 cumulative IPC: 1.77298 (Simulation time: 0 hr 30 min 20 sec) 
Finished CPU 0 instructions: 50000003 cycles: 28201176 cumulative IPC: 1.77298 (Simulation time: 0 hr 30 min 20 sec) 

ChampSim completed all CPUs

Region of Interest Statistics

CPU 0 cumulative IPC: 1.77298 instructions: 50000003 cycles: 28201176
L1D TOTAL     ACCESS:   20731150  HIT:   20671261  MISS:      59889
L1D LOAD      ACCESS:    6790673  HIT:    6756017  MISS:      34656
L1D RFO       ACCESS:    7347365  HIT:    7340176  MISS:       7189
L1D PREFETCH  ACCESS:    6593112  HIT:    6575068  MISS:      18044
L1D WRITEBACK ACCESS:          0  HIT:          0  MISS:          0
L1D PREFETCH  REQUESTED:    6791637  ISSUED:    6626664  USEFUL:       5461  USELESS:      12584
L1D AVERAGE MISS LATENCY: 18.03 cycles
L1I TOTAL     ACCESS:   25564949  HIT:   20847836  MISS:    4717113
L1I LOAD      ACCESS:    8917566  HIT:    8579131  MISS:     338435
L1I RFO       ACCESS:          0  HIT:          0  MISS:          0
L1I PREFETCH  ACCESS:   16647383  HIT:   12268705  MISS:    4378678
L1I WRITEBACK ACCESS:          0  HIT:          0  MISS:          0
L1I PREFETCH  REQUESTED:   18563281  ISSUED:   18563281  USEFUL:    3444854  USELESS:     933834
L1I AVERAGE MISS LATENCY: 13.5046 cycles
L2C TOTAL     ACCESS:    6008322  HIT:    6006135  MISS:       2187
L2C LOAD      ACCESS:      96571  HIT:      96257  MISS:        314
L2C RFO       ACCESS:       7180  HIT:       7130  MISS:         50
L2C PREFETCH  ACCESS:    5888976  HIT:    5887169  MISS:       1807
L2C WRITEBACK ACCESS:      15595  HIT:      15579  MISS:         16
L2C PREFETCH  REQUESTED:    2816753  ISSUED:    2816744  USEFUL:        146  USELESS:       1100
L2C AVERAGE MISS LATENCY: 151.156 cycles
LLC TOTAL     ACCESS:     553602  HIT:     550762  MISS:       2840
LLC LOAD      ACCESS:        314  HIT:         97  MISS:        217
LLC RFO       ACCESS:         50  HIT:         19  MISS:         31
LLC PREFETCH  ACCESS:     552355  HIT:     549779  MISS:       2576
LLC WRITEBACK ACCESS:        883  HIT:        867  MISS:         16
LLC PREFETCH  REQUESTED:          0  ISSUED:          0  USEFUL:         30  USELESS:        724
LLC AVERAGE MISS LATENCY: 244.372 cycles
Major fault: 0 Minor fault: 1937
CPU 0 L1D next line prefetcher final stats

DRAM Statistics
 CHANNEL 0
 RQ ROW_BUFFER_HIT:        396  ROW_BUFFER_MISS:       2428
 DBUS_CONGESTED:       1215
 WQ ROW_BUFFER_HIT:        276  ROW_BUFFER_MISS:       1697  FULL:          0

 AVG_CONGESTED_CYCLE: 6

CPU 0 Branch Prediction Accuracy: 99.8717% MPKI: 0.21174 Average ROB Occupancy at Mispredict: 214.058

Branch types
NOT_BRANCH: 41748439 83.4969%
BRANCH_DIRECT_JUMP: 468564 0.937128%
BRANCH_INDIRECT: 0 0%
BRANCH_CONDITIONAL: 5599754 11.1995%
BRANCH_DIRECT_CALL: 885105 1.77021%
BRANCH_INDIRECT_CALL: 206338 0.412676%
BRANCH_RETURN: 1091468 2.18294%
BRANCH_OTHER: 0 0%

