Initialize SIGNATURE TABLE
ST_SET: 1
ST_WAY: 256
ST_TAG_BIT: 16
ST_TAG_MASK: ffff

Initialize PATTERN TABLE
PT_SET: 512
PT_WAY: 4
SIG_DELTA_BIT: 7
C_SIG_BIT: 4
C_DELTA_BIT: 4

Initialize PREFETCH FILTER
FILTER_SET: 1024

*** ChampSim Multicore Out-of-Order Simulator ***

Warmup Instructions: 50000000
Simulation Instructions: 50000000
Number of CPUs: 1
LLC sets: 2048
LLC ways: 16
Off-chip DRAM Size: 4096 MB Channels: 1 Width: 64-bit Data Rate: 3200 MT/s

CPU 0 runs /home/ykhodke/ChampSim/dpc3_traces/server_032.champsimtrace.xz
LHT KB: 63.12
SCC KB: 1.56
Total KB: 64.69
CPU 0 L1D next line prefetcher
Heartbeat CPU 0 instructions: 10000002 cycles: 3530999 heartbeat IPC: 2.83206 cumulative IPC: 2.83206 (Simulation time: 0 hr 3 min 20 sec) 
Heartbeat CPU 0 instructions: 20000003 cycles: 7063840 heartbeat IPC: 2.83058 cumulative IPC: 2.83132 (Simulation time: 0 hr 7 min 1 sec) 
Heartbeat CPU 0 instructions: 30000000 cycles: 10595653 heartbeat IPC: 2.83141 cumulative IPC: 2.83135 (Simulation time: 0 hr 10 min 10 sec) 
Heartbeat CPU 0 instructions: 40000003 cycles: 14128918 heartbeat IPC: 2.83024 cumulative IPC: 2.83107 (Simulation time: 0 hr 13 min 43 sec) 
Heartbeat CPU 0 instructions: 50000000 cycles: 17660755 heartbeat IPC: 2.83139 cumulative IPC: 2.83114 (Simulation time: 0 hr 17 min 31 sec) 

Warmup complete CPU 0 instructions: 50000004 cycles: 17660756 (Simulation time: 0 hr 17 min 31 sec) 

Heartbeat CPU 0 instructions: 60000002 cycles: 24566601 heartbeat IPC: 1.44805 cumulative IPC: 1.44805 (Simulation time: 0 hr 21 min 48 sec) 
Heartbeat CPU 0 instructions: 70000002 cycles: 31468185 heartbeat IPC: 1.44894 cumulative IPC: 1.4485 (Simulation time: 0 hr 25 min 33 sec) 
*** Reached end of trace for Core: 0 Repeating trace: /home/ykhodke/ChampSim/dpc3_traces/server_032.champsimtrace.xz
Heartbeat CPU 0 instructions: 80000003 cycles: 38367210 heartbeat IPC: 1.44948 cumulative IPC: 1.44882 (Simulation time: 0 hr 28 min 21 sec) 
Heartbeat CPU 0 instructions: 90000002 cycles: 45233482 heartbeat IPC: 1.45639 cumulative IPC: 1.45071 (Simulation time: 0 hr 29 min 54 sec) 
Heartbeat CPU 0 instructions: 100000001 cycles: 52112386 heartbeat IPC: 1.45372 cumulative IPC: 1.45131 (Simulation time: 0 hr 30 min 39 sec) 
Finished CPU 0 instructions: 50000002 cycles: 34451632 cumulative IPC: 1.45131 (Simulation time: 0 hr 30 min 39 sec) 

ChampSim completed all CPUs

Region of Interest Statistics

CPU 0 cumulative IPC: 1.45131 instructions: 50000002 cycles: 34451632
L1D TOTAL     ACCESS:   20037157  HIT:   18208650  MISS:    1828507
L1D LOAD      ACCESS:    6875360  HIT:    6081115  MISS:     794245
L1D RFO       ACCESS:    6562070  HIT:    6267242  MISS:     294828
L1D PREFETCH  ACCESS:    6599727  HIT:    5860293  MISS:     739434
L1D WRITEBACK ACCESS:          0  HIT:          0  MISS:          0
L1D PREFETCH  REQUESTED:    6924062  ISSUED:    6794584  USEFUL:     169842  USELESS:     569590
L1D AVERAGE MISS LATENCY: 18.9805 cycles
L1I TOTAL     ACCESS:   24628129  HIT:   19360065  MISS:    5268064
L1I LOAD      ACCESS:    9483022  HIT:    8734341  MISS:     748681
L1I RFO       ACCESS:          0  HIT:          0  MISS:          0
L1I PREFETCH  ACCESS:   15145107  HIT:   10625724  MISS:    4519383
L1I WRITEBACK ACCESS:          0  HIT:          0  MISS:          0
L1I PREFETCH  REQUESTED:   20588848  ISSUED:   20588848  USEFUL:    2575394  USELESS:    1943967
L1I AVERAGE MISS LATENCY: 14.3355 cycles
L2C TOTAL     ACCESS:   10005338  HIT:    9453187  MISS:     552151
L2C LOAD      ACCESS:     914107  HIT:     800316  MISS:     113791
L2C RFO       ACCESS:     292708  HIT:     263780  MISS:      28928
L2C PREFETCH  ACCESS:    8162154  HIT:    7754823  MISS:     407331
L2C WRITEBACK ACCESS:     636369  HIT:     634268  MISS:       2101
L2C PREFETCH  REQUESTED:    5400528  ISSUED:    5395362  USEFUL:       9079  USELESS:     398102
L2C AVERAGE MISS LATENCY: 32.4837 cycles
LLC TOTAL     ACCESS:    1625953  HIT:    1621043  MISS:       4910
LLC LOAD      ACCESS:     113791  HIT:     113368  MISS:        423
LLC RFO       ACCESS:      28928  HIT:      28928  MISS:          0
LLC PREFETCH  ACCESS:    1404880  HIT:    1400404  MISS:       4476
LLC WRITEBACK ACCESS:      78354  HIT:      78343  MISS:         11
LLC PREFETCH  REQUESTED:          0  ISSUED:          0  USEFUL:        364  USELESS:       1545
LLC AVERAGE MISS LATENCY: 144.285 cycles
Major fault: 0 Minor fault: 1191
CPU 0 L1D next line prefetcher final stats

DRAM Statistics
 CHANNEL 0
 RQ ROW_BUFFER_HIT:       1384  ROW_BUFFER_MISS:       3515
 DBUS_CONGESTED:        449
 WQ ROW_BUFFER_HIT:          0  ROW_BUFFER_MISS:         15  FULL:          0

 AVG_CONGESTED_CYCLE: 4

CPU 0 Branch Prediction Accuracy: 99.8762% MPKI: 0.2296 Average ROB Occupancy at Mispredict: 186.345

Branch types
NOT_BRANCH: 40726120 81.4522%
BRANCH_DIRECT_JUMP: 508373 1.01675%
BRANCH_INDIRECT: 180051 0.360102%
BRANCH_CONDITIONAL: 5999655 11.9993%
BRANCH_DIRECT_CALL: 1086739 2.17348%
BRANCH_INDIRECT_CALL: 206109 0.412218%
BRANCH_RETURN: 1292836 2.58567%
BRANCH_OTHER: 0 0%

