Initialize SIGNATURE TABLE
ST_SET: 1
ST_WAY: 256
ST_TAG_BIT: 16
ST_TAG_MASK: ffff

Initialize PATTERN TABLE
PT_SET: 512
PT_WAY: 4
SIG_DELTA_BIT: 7
C_SIG_BIT: 4
C_DELTA_BIT: 4

Initialize PREFETCH FILTER
FILTER_SET: 1024

*** ChampSim Multicore Out-of-Order Simulator ***

Warmup Instructions: 50000000
Simulation Instructions: 50000000
Number of CPUs: 1
LLC sets: 2048
LLC ways: 16
Off-chip DRAM Size: 4096 MB Channels: 1 Width: 64-bit Data Rate: 3200 MT/s

CPU 0 runs /home/ykhodke/ChampSim/dpc3_traces/server_017.champsimtrace.xz
L1I D-JOLT instruction prefetcher has been constructed!
CPU 0 L1D next line prefetcher
Heartbeat CPU 0 instructions: 10000001 cycles: 3622706 heartbeat IPC: 2.76037 cumulative IPC: 2.76037 (Simulation time: 0 hr 2 min 41 sec) 
Heartbeat CPU 0 instructions: 20000000 cycles: 7243377 heartbeat IPC: 2.76192 cumulative IPC: 2.76114 (Simulation time: 0 hr 5 min 23 sec) 
Heartbeat CPU 0 instructions: 30000002 cycles: 10870657 heartbeat IPC: 2.75689 cumulative IPC: 2.75972 (Simulation time: 0 hr 8 min 6 sec) 
Heartbeat CPU 0 instructions: 40000000 cycles: 14493245 heartbeat IPC: 2.76046 cumulative IPC: 2.75991 (Simulation time: 0 hr 11 min 0 sec) 
Heartbeat CPU 0 instructions: 50000001 cycles: 18126792 heartbeat IPC: 2.75213 cumulative IPC: 2.75835 (Simulation time: 0 hr 13 min 55 sec) 

Warmup complete CPU 0 instructions: 50000001 cycles: 18126792 (Simulation time: 0 hr 13 min 55 sec) 

Heartbeat CPU 0 instructions: 60000002 cycles: 35494209 heartbeat IPC: 0.575791 cumulative IPC: 0.575791 (Simulation time: 0 hr 17 min 49 sec) 
Heartbeat CPU 0 instructions: 70000002 cycles: 52995527 heartbeat IPC: 0.571386 cumulative IPC: 0.57358 (Simulation time: 0 hr 21 min 46 sec) 
Heartbeat CPU 0 instructions: 80000000 cycles: 70255011 heartbeat IPC: 0.579391 cumulative IPC: 0.575504 (Simulation time: 0 hr 25 min 20 sec) 
Heartbeat CPU 0 instructions: 90000002 cycles: 93378651 heartbeat IPC: 0.432458 cumulative IPC: 0.531548 (Simulation time: 0 hr 28 min 29 sec) 
Heartbeat CPU 0 instructions: 100000003 cycles: 113258952 heartbeat IPC: 0.503011 cumulative IPC: 0.525585 (Simulation time: 0 hr 29 min 58 sec) 
Finished CPU 0 instructions: 50000002 cycles: 95132160 cumulative IPC: 0.525585 (Simulation time: 0 hr 29 min 58 sec) 

ChampSim completed all CPUs

Region of Interest Statistics

CPU 0 cumulative IPC: 0.525585 instructions: 50000002 cycles: 95132160
L1D TOTAL     ACCESS:   18379137  HIT:   16213713  MISS:    2165424
L1D LOAD      ACCESS:    7025113  HIT:    6281831  MISS:     743282
L1D RFO       ACCESS:    5514726  HIT:    4655484  MISS:     859242
L1D PREFETCH  ACCESS:    5839298  HIT:    5276398  MISS:     562900
L1D WRITEBACK ACCESS:          0  HIT:          0  MISS:          0
L1D PREFETCH  REQUESTED:    7061823  ISSUED:    6871310  USEFUL:     200667  USELESS:     362293
L1D AVERAGE MISS LATENCY: 177.407 cycles
L1I TOTAL     ACCESS:   17632626  HIT:   14623214  MISS:    3009412
L1I LOAD      ACCESS:    9907506  HIT:    9870986  MISS:      36520
L1I RFO       ACCESS:          0  HIT:          0  MISS:          0
L1I PREFETCH  ACCESS:    7725120  HIT:    4752228  MISS:    2972892
L1I WRITEBACK ACCESS:          0  HIT:          0  MISS:          0
L1I PREFETCH  REQUESTED:    8302260  ISSUED:    8261731  USEFUL:    2429049  USELESS:     543851
L1I AVERAGE MISS LATENCY: 18.1574 cycles
L2C TOTAL     ACCESS:    7597867  HIT:    5753005  MISS:    1844862
L2C LOAD      ACCESS:     571089  HIT:     241567  MISS:     329522
L2C RFO       ACCESS:     858739  HIT:      17803  MISS:     840936
L2C PREFETCH  ACCESS:    5045123  HIT:    4372742  MISS:     672381
L2C WRITEBACK ACCESS:    1122916  HIT:    1120893  MISS:       2023
L2C PREFETCH  REQUESTED:    4766806  ISSUED:    4761674  USEFUL:      20904  USELESS:     652165
L2C AVERAGE MISS LATENCY: 211.861 cycles
LLC TOTAL     ACCESS:    4171538  HIT:    2645700  MISS:    1525838
LLC LOAD      ACCESS:     329435  HIT:     173703  MISS:     155732
LLC RFO       ACCESS:     840936  HIT:     122390  MISS:     718546
LLC PREFETCH  ACCESS:    1939330  HIT:    1289881  MISS:     649449
LLC WRITEBACK ACCESS:    1061837  HIT:    1059726  MISS:       2111
LLC PREFETCH  REQUESTED:          0  ISSUED:          0  USEFUL:      48439  USELESS:     599654
LLC AVERAGE MISS LATENCY: 271.447 cycles
Major fault: 0 Minor fault: 24698
CPU 0 L1D next line prefetcher final stats

DRAM Statistics
 CHANNEL 0
 RQ ROW_BUFFER_HIT:     375240  ROW_BUFFER_MISS:    1148291
 DBUS_CONGESTED:    1475684
 WQ ROW_BUFFER_HIT:     244098  ROW_BUFFER_MISS:     634426  FULL:          0

 AVG_CONGESTED_CYCLE: 6

CPU 0 Branch Prediction Accuracy: 99.2833% MPKI: 1.20568 Average ROB Occupancy at Mispredict: 182.306

Branch types
NOT_BRANCH: 41588346 83.1767%
BRANCH_DIRECT_JUMP: 464501 0.929002%
BRANCH_INDIRECT: 45704 0.091408%
BRANCH_CONDITIONAL: 6147408 12.2948%
BRANCH_DIRECT_CALL: 675450 1.3509%
BRANCH_INDIRECT_CALL: 201532 0.403064%
BRANCH_RETURN: 876985 1.75397%
BRANCH_OTHER: 0 0%

