Initialize SIGNATURE TABLE
ST_SET: 1
ST_WAY: 256
ST_TAG_BIT: 16
ST_TAG_MASK: ffff

Initialize PATTERN TABLE
PT_SET: 512
PT_WAY: 4
SIG_DELTA_BIT: 7
C_SIG_BIT: 4
C_DELTA_BIT: 4

Initialize PREFETCH FILTER
FILTER_SET: 1024

*** ChampSim Multicore Out-of-Order Simulator ***

Warmup Instructions: 50000000
Simulation Instructions: 50000000
Number of CPUs: 1
LLC sets: 2048
LLC ways: 16
Off-chip DRAM Size: 4096 MB Channels: 1 Width: 64-bit Data Rate: 3200 MT/s

CPU 0 runs /home/ykhodke/ChampSim/dpc3_traces/server_010.champsimtrace.xz
L1I D-JOLT instruction prefetcher has been constructed!
CPU 0 L1D next line prefetcher
Heartbeat CPU 0 instructions: 10000000 cycles: 3193460 heartbeat IPC: 3.1314 cumulative IPC: 3.1314 (Simulation time: 0 hr 3 min 8 sec) 
Heartbeat CPU 0 instructions: 20000002 cycles: 6384071 heartbeat IPC: 3.1342 cumulative IPC: 3.1328 (Simulation time: 0 hr 5 min 58 sec) 
Heartbeat CPU 0 instructions: 30000001 cycles: 9578134 heartbeat IPC: 3.13081 cumulative IPC: 3.13213 (Simulation time: 0 hr 8 min 41 sec) 
Heartbeat CPU 0 instructions: 40000000 cycles: 12768500 heartbeat IPC: 3.13444 cumulative IPC: 3.13271 (Simulation time: 0 hr 11 min 27 sec) 
Heartbeat CPU 0 instructions: 50000003 cycles: 15964017 heartbeat IPC: 3.12938 cumulative IPC: 3.13204 (Simulation time: 0 hr 14 min 5 sec) 

Warmup complete CPU 0 instructions: 50000003 cycles: 15964017 (Simulation time: 0 hr 14 min 5 sec) 

Heartbeat CPU 0 instructions: 60000001 cycles: 23163372 heartbeat IPC: 1.38901 cumulative IPC: 1.38901 (Simulation time: 0 hr 16 min 40 sec) 
Heartbeat CPU 0 instructions: 70000000 cycles: 30373351 heartbeat IPC: 1.38697 cumulative IPC: 1.38799 (Simulation time: 0 hr 19 min 9 sec) 
Heartbeat CPU 0 instructions: 80000003 cycles: 37685425 heartbeat IPC: 1.3676 cumulative IPC: 1.38113 (Simulation time: 0 hr 21 min 42 sec) 
Heartbeat CPU 0 instructions: 90000002 cycles: 44732409 heartbeat IPC: 1.41905 cumulative IPC: 1.39041 (Simulation time: 0 hr 24 min 11 sec) 
Heartbeat CPU 0 instructions: 100000003 cycles: 65345034 heartbeat IPC: 0.48514 cumulative IPC: 1.01253 (Simulation time: 0 hr 27 min 39 sec) 
Finished CPU 0 instructions: 50000000 cycles: 49381017 cumulative IPC: 1.01253 (Simulation time: 0 hr 27 min 39 sec) 

ChampSim completed all CPUs

Region of Interest Statistics

CPU 0 cumulative IPC: 1.01253 instructions: 50000000 cycles: 49381017
L1D TOTAL     ACCESS:   19893368  HIT:   16668185  MISS:    3225183
L1D LOAD      ACCESS:    7702632  HIT:    6109833  MISS:    1592799
L1D RFO       ACCESS:    4711702  HIT:    4617352  MISS:      94350
L1D PREFETCH  ACCESS:    7479034  HIT:    5941000  MISS:    1538034
L1D WRITEBACK ACCESS:          0  HIT:          0  MISS:          0
L1D PREFETCH  REQUESTED:    7735508  ISSUED:    7638472  USEFUL:     117499  USELESS:    1420508
L1D AVERAGE MISS LATENCY: 22.7094 cycles
L1I TOTAL     ACCESS:   16085983  HIT:   14561658  MISS:    1524325
L1I LOAD      ACCESS:    9954561  HIT:    9862331  MISS:      92230
L1I RFO       ACCESS:          0  HIT:          0  MISS:          0
L1I PREFETCH  ACCESS:    6131422  HIT:    4699327  MISS:    1432095
L1I WRITEBACK ACCESS:          0  HIT:          0  MISS:          0
L1I PREFETCH  REQUESTED:    6673629  ISSUED:    6537037  USEFUL:    1137341  USELESS:     294728
L1I AVERAGE MISS LATENCY: 31.5143 cycles
L2C TOTAL     ACCESS:    6106730  HIT:    4965879  MISS:    1140851
L2C LOAD      ACCESS:    1608540  HIT:    1373221  MISS:     235319
L2C RFO       ACCESS:      93332  HIT:      47902  MISS:      45430
L2C PREFETCH  ACCESS:    4139500  HIT:    3280316  MISS:     859184
L2C WRITEBACK ACCESS:     265358  HIT:     264440  MISS:        918
L2C PREFETCH  REQUESTED:    5305755  ISSUED:    5303690  USEFUL:      22466  USELESS:     838052
L2C AVERAGE MISS LATENCY: 45.3243 cycles
LLC TOTAL     ACCESS:    2351371  HIT:    2223962  MISS:     127409
LLC LOAD      ACCESS:     235216  HIT:     218231  MISS:      16985
LLC RFO       ACCESS:      45423  HIT:      36438  MISS:       8985
LLC PREFETCH  ACCESS:    1920520  HIT:    1819252  MISS:     101268
LLC WRITEBACK ACCESS:     150212  HIT:     150041  MISS:        171
LLC PREFETCH  REQUESTED:          0  ISSUED:          0  USEFUL:       9822  USELESS:      91907
LLC AVERAGE MISS LATENCY: 175.399 cycles
Major fault: 0 Minor fault: 5609
CPU 0 L1D next line prefetcher final stats

DRAM Statistics
 CHANNEL 0
 RQ ROW_BUFFER_HIT:      19052  ROW_BUFFER_MISS:     108163
 DBUS_CONGESTED:      57398
 WQ ROW_BUFFER_HIT:       9804  ROW_BUFFER_MISS:      44305  FULL:          0

 AVG_CONGESTED_CYCLE: 5

CPU 0 Branch Prediction Accuracy: 99.5528% MPKI: 0.89798 Average ROB Occupancy at Mispredict: 128.44

Branch types
NOT_BRANCH: 39958788 79.9176%
BRANCH_DIRECT_JUMP: 449946 0.899892%
BRANCH_INDIRECT: 140210 0.28042%
BRANCH_CONDITIONAL: 7679677 15.3594%
BRANCH_DIRECT_CALL: 701578 1.40316%
BRANCH_INDIRECT_CALL: 168971 0.337942%
BRANCH_RETURN: 900560 1.80112%
BRANCH_OTHER: 0 0%

