Initialize SIGNATURE TABLE
ST_SET: 1
ST_WAY: 256
ST_TAG_BIT: 16
ST_TAG_MASK: ffff

Initialize PATTERN TABLE
PT_SET: 512
PT_WAY: 4
SIG_DELTA_BIT: 7
C_SIG_BIT: 4
C_DELTA_BIT: 4

Initialize PREFETCH FILTER
FILTER_SET: 1024

*** ChampSim Multicore Out-of-Order Simulator ***

Warmup Instructions: 50000000
Simulation Instructions: 50000000
Number of CPUs: 1
LLC sets: 2048
LLC ways: 16
Off-chip DRAM Size: 4096 MB Channels: 1 Width: 64-bit Data Rate: 3200 MT/s

CPU 0 runs /home/ykhodke/ChampSim/dpc3_traces/server_022.champsimtrace.xz
CPU 0 L1D next line prefetcher
Heartbeat CPU 0 instructions: 10000002 cycles: 3629427 heartbeat IPC: 2.75526 cumulative IPC: 2.75526 (Simulation time: 0 hr 0 min 15 sec) 
Heartbeat CPU 0 instructions: 20000001 cycles: 7265195 heartbeat IPC: 2.75045 cumulative IPC: 2.75285 (Simulation time: 0 hr 0 min 29 sec) 
Heartbeat CPU 0 instructions: 30000003 cycles: 10894281 heartbeat IPC: 2.75552 cumulative IPC: 2.75374 (Simulation time: 0 hr 0 min 44 sec) 
Heartbeat CPU 0 instructions: 40000003 cycles: 14531042 heartbeat IPC: 2.7497 cumulative IPC: 2.75273 (Simulation time: 0 hr 0 min 58 sec) 
Heartbeat CPU 0 instructions: 50000002 cycles: 18157614 heartbeat IPC: 2.75742 cumulative IPC: 2.75367 (Simulation time: 0 hr 1 min 13 sec) 

Warmup complete CPU 0 instructions: 50000002 cycles: 18157614 (Simulation time: 0 hr 1 min 13 sec) 

Heartbeat CPU 0 instructions: 60000002 cycles: 37145839 heartbeat IPC: 0.526642 cumulative IPC: 0.526642 (Simulation time: 0 hr 1 min 32 sec) 
Heartbeat CPU 0 instructions: 70000001 cycles: 56269967 heartbeat IPC: 0.5229 cumulative IPC: 0.524764 (Simulation time: 0 hr 1 min 50 sec) 
Heartbeat CPU 0 instructions: 80000001 cycles: 75173717 heartbeat IPC: 0.528996 cumulative IPC: 0.526167 (Simulation time: 0 hr 2 min 9 sec) 
Heartbeat CPU 0 instructions: 90000000 cycles: 94413948 heartbeat IPC: 0.519744 cumulative IPC: 0.524547 (Simulation time: 0 hr 2 min 27 sec) 
Heartbeat CPU 0 instructions: 100000003 cycles: 113266171 heartbeat IPC: 0.530442 cumulative IPC: 0.525715 (Simulation time: 0 hr 2 min 46 sec) 
Finished CPU 0 instructions: 50000001 cycles: 95108557 cumulative IPC: 0.525715 (Simulation time: 0 hr 2 min 46 sec) 

ChampSim completed all CPUs

Region of Interest Statistics

CPU 0 cumulative IPC: 0.525715 instructions: 50000001 cycles: 95108557
L1D TOTAL     ACCESS:   20056881  HIT:   17846138  MISS:    2210743
L1D LOAD      ACCESS:    7697932  HIT:    6987812  MISS:     710120
L1D RFO       ACCESS:    5936599  HIT:    4957009  MISS:     979590
L1D PREFETCH  ACCESS:    6422350  HIT:    5901317  MISS:     521033
L1D WRITEBACK ACCESS:          0  HIT:          0  MISS:          0
L1D PREFETCH  REQUESTED:    7746902  ISSUED:    7558978  USEFUL:     199814  USELESS:     321224
L1D AVERAGE MISS LATENCY: 175.348 cycles
L1I TOTAL     ACCESS:    9988059  HIT:    7539377  MISS:    2448682
L1I LOAD      ACCESS:    9988059  HIT:    7539377  MISS:    2448682
L1I RFO       ACCESS:          0  HIT:          0  MISS:          0
L1I PREFETCH  ACCESS:          0  HIT:          0  MISS:          0
L1I WRITEBACK ACCESS:          0  HIT:          0  MISS:          0
L1I PREFETCH  REQUESTED:          0  ISSUED:          0  USEFUL:          0  USELESS:          0
L1I AVERAGE MISS LATENCY: 17.1522 cycles
L2C TOTAL     ACCESS:    8003397  HIT:    6140666  MISS:    1862731
L2C LOAD      ACCESS:    2923422  HIT:    2552631  MISS:     370791
L2C RFO       ACCESS:     979121  HIT:      20578  MISS:     958543
L2C PREFETCH  ACCESS:    2915679  HIT:    2384371  MISS:     531308
L2C WRITEBACK ACCESS:    1185175  HIT:    1183086  MISS:       2089
L2C PREFETCH  REQUESTED:    3962390  ISSUED:    3958733  USEFUL:      20675  USELESS:     510502
L2C AVERAGE MISS LATENCY: 213.295 cycles
LLC TOTAL     ACCESS:    4070051  HIT:    2689452  MISS:    1380599
LLC LOAD      ACCESS:     370414  HIT:     282904  MISS:      87510
LLC RFO       ACCESS:     958535  HIT:     141380  MISS:     817155
LLC PREFETCH  ACCESS:    1624123  HIT:    1150257  MISS:     473866
LLC WRITEBACK ACCESS:    1116979  HIT:    1114911  MISS:       2068
LLC PREFETCH  REQUESTED:          0  ISSUED:          0  USEFUL:      31326  USELESS:     443520
LLC AVERAGE MISS LATENCY: 281.711 cycles
Major fault: 0 Minor fault: 23505
CPU 0 L1D next line prefetcher final stats

DRAM Statistics
 CHANNEL 0
 RQ ROW_BUFFER_HIT:     399828  ROW_BUFFER_MISS:     978511
 DBUS_CONGESTED:    1400084
 WQ ROW_BUFFER_HIT:     269929  ROW_BUFFER_MISS:     630255  FULL:          0

 AVG_CONGESTED_CYCLE: 6

CPU 0 Branch Prediction Accuracy: 99.8317% MPKI: 0.27564 Average ROB Occupancy at Mispredict: 171.969

Branch types
NOT_BRANCH: 41811083 83.6222%
BRANCH_DIRECT_JUMP: 445739 0.891478%
BRANCH_INDIRECT: 48876 0.097752%
BRANCH_CONDITIONAL: 5859387 11.7188%
BRANCH_DIRECT_CALL: 758265 1.51653%
BRANCH_INDIRECT_CALL: 159103 0.318206%
BRANCH_RETURN: 917370 1.83474%
BRANCH_OTHER: 0 0%

