Initialize SIGNATURE TABLE
ST_SET: 1
ST_WAY: 256
ST_TAG_BIT: 16
ST_TAG_MASK: ffff

Initialize PATTERN TABLE
PT_SET: 512
PT_WAY: 4
SIG_DELTA_BIT: 7
C_SIG_BIT: 4
C_DELTA_BIT: 4

Initialize PREFETCH FILTER
FILTER_SET: 1024

*** ChampSim Multicore Out-of-Order Simulator ***

Warmup Instructions: 50000000
Simulation Instructions: 50000000
Number of CPUs: 1
LLC sets: 2048
LLC ways: 16
Off-chip DRAM Size: 4096 MB Channels: 1 Width: 64-bit Data Rate: 3200 MT/s

CPU 0 runs /home/ykhodke/ChampSim/dpc3_traces/server_023.champsimtrace.xz
LHT KB: 126.25
SCC KB: 1.56
Total KB: 127.81
CPU 0 L1D next line prefetcher
Heartbeat CPU 0 instructions: 10000000 cycles: 3503211 heartbeat IPC: 2.85452 cumulative IPC: 2.85452 (Simulation time: 0 hr 3 min 14 sec) 
Heartbeat CPU 0 instructions: 20000000 cycles: 7005806 heartbeat IPC: 2.85503 cumulative IPC: 2.85477 (Simulation time: 0 hr 6 min 27 sec) 
Heartbeat CPU 0 instructions: 30000001 cycles: 10501790 heartbeat IPC: 2.86043 cumulative IPC: 2.85666 (Simulation time: 0 hr 9 min 39 sec) 
Heartbeat CPU 0 instructions: 40000003 cycles: 14002992 heartbeat IPC: 2.85616 cumulative IPC: 2.85653 (Simulation time: 0 hr 12 min 51 sec) 
Heartbeat CPU 0 instructions: 50000001 cycles: 17506833 heartbeat IPC: 2.85401 cumulative IPC: 2.85603 (Simulation time: 0 hr 16 min 2 sec) 

Warmup complete CPU 0 instructions: 50000001 cycles: 17506833 (Simulation time: 0 hr 16 min 2 sec) 

Heartbeat CPU 0 instructions: 60000002 cycles: 24394056 heartbeat IPC: 1.45196 cumulative IPC: 1.45196 (Simulation time: 0 hr 19 min 16 sec) 
Heartbeat CPU 0 instructions: 70000002 cycles: 31493810 heartbeat IPC: 1.4085 cumulative IPC: 1.4299 (Simulation time: 0 hr 22 min 43 sec) 
Heartbeat CPU 0 instructions: 80000000 cycles: 38511401 heartbeat IPC: 1.42499 cumulative IPC: 1.42826 (Simulation time: 0 hr 25 min 48 sec) 
Heartbeat CPU 0 instructions: 90000000 cycles: 45528003 heartbeat IPC: 1.42519 cumulative IPC: 1.42749 (Simulation time: 0 hr 28 min 4 sec) 
Heartbeat CPU 0 instructions: 100000003 cycles: 52513865 heartbeat IPC: 1.43146 cumulative IPC: 1.42828 (Simulation time: 0 hr 29 min 59 sec) 
Finished CPU 0 instructions: 50000002 cycles: 35007032 cumulative IPC: 1.42828 (Simulation time: 0 hr 29 min 59 sec) 

ChampSim completed all CPUs

Region of Interest Statistics

CPU 0 cumulative IPC: 1.42828 instructions: 50000002 cycles: 35007032
L1D TOTAL     ACCESS:   19493049  HIT:   18025965  MISS:    1467084
L1D LOAD      ACCESS:    6916407  HIT:    6254771  MISS:     661636
L1D RFO       ACCESS:    5984972  HIT:    5723540  MISS:     261432
L1D PREFETCH  ACCESS:    6591670  HIT:    6047654  MISS:     544016
L1D WRITEBACK ACCESS:          0  HIT:          0  MISS:          0
L1D PREFETCH  REQUESTED:    6966478  ISSUED:    6847840  USEFUL:     129208  USELESS:     414817
L1D AVERAGE MISS LATENCY: 25.2356 cycles
L1I TOTAL     ACCESS:   24034348  HIT:   19075267  MISS:    4959081
L1I LOAD      ACCESS:    9360352  HIT:    8895366  MISS:     464986
L1I RFO       ACCESS:          0  HIT:          0  MISS:          0
L1I PREFETCH  ACCESS:   14673996  HIT:   10179901  MISS:    4494095
L1I WRITEBACK ACCESS:          0  HIT:          0  MISS:          0
L1I PREFETCH  REQUESTED:   17155553  ISSUED:   17155553  USEFUL:    2147241  USELESS:    2346813
L1I AVERAGE MISS LATENCY: 15.5702 cycles
L2C TOTAL     ACCESS:    8691734  HIT:    7966150  MISS:     725584
L2C LOAD      ACCESS:     694735  HIT:     554685  MISS:     140050
L2C RFO       ACCESS:     259511  HIT:     174075  MISS:      85436
L2C PREFETCH  ACCESS:    7238220  HIT:    6743827  MISS:     494393
L2C WRITEBACK ACCESS:     499268  HIT:     493563  MISS:       5705
L2C PREFETCH  REQUESTED:    4895184  ISSUED:    4889812  USEFUL:      22147  USELESS:     471407
L2C AVERAGE MISS LATENCY: 40.9912 cycles
LLC TOTAL     ACCESS:    2164611  HIT:    2115985  MISS:      48626
LLC LOAD      ACCESS:     139866  HIT:     134569  MISS:       5297
LLC RFO       ACCESS:      85429  HIT:      67465  MISS:      17964
LLC PREFETCH  ACCESS:    1794615  HIT:    1769466  MISS:      25149
LLC WRITEBACK ACCESS:     144701  HIT:     144485  MISS:        216
LLC PREFETCH  REQUESTED:          0  ISSUED:          0  USEFUL:       1742  USELESS:      22963
LLC AVERAGE MISS LATENCY: 191.082 cycles
Major fault: 0 Minor fault: 2785
CPU 0 L1D next line prefetcher final stats

DRAM Statistics
 CHANNEL 0
 RQ ROW_BUFFER_HIT:      15171  ROW_BUFFER_MISS:      33231
 DBUS_CONGESTED:      32405
 WQ ROW_BUFFER_HIT:       2312  ROW_BUFFER_MISS:      19222  FULL:          0

 AVG_CONGESTED_CYCLE: 6

CPU 0 Branch Prediction Accuracy: 99.6798% MPKI: 0.58608 Average ROB Occupancy at Mispredict: 137.782

Branch types
NOT_BRANCH: 40848322 81.6966%
BRANCH_DIRECT_JUMP: 548372 1.09674%
BRANCH_INDIRECT: 189802 0.379604%
BRANCH_CONDITIONAL: 6372772 12.7455%
BRANCH_DIRECT_CALL: 862207 1.72441%
BRANCH_INDIRECT_CALL: 158149 0.316298%
BRANCH_RETURN: 1020345 2.04069%
BRANCH_OTHER: 0 0%

