Initialize SIGNATURE TABLE
ST_SET: 1
ST_WAY: 256
ST_TAG_BIT: 16
ST_TAG_MASK: ffff

Initialize PATTERN TABLE
PT_SET: 512
PT_WAY: 4
SIG_DELTA_BIT: 7
C_SIG_BIT: 4
C_DELTA_BIT: 4

Initialize PREFETCH FILTER
FILTER_SET: 1024

*** ChampSim Multicore Out-of-Order Simulator ***

Warmup Instructions: 50000000
Simulation Instructions: 50000000
Number of CPUs: 1
LLC sets: 2048
LLC ways: 16
Off-chip DRAM Size: 4096 MB Channels: 1 Width: 64-bit Data Rate: 3200 MT/s

CPU 0 runs /home/ykhodke/ChampSim/dpc3_traces/server_025.champsimtrace.xz
LHT KB: 126.25
SCC KB: 1.56
Total KB: 127.81
CPU 0 L1D next line prefetcher
Heartbeat CPU 0 instructions: 10000003 cycles: 3525391 heartbeat IPC: 2.83657 cumulative IPC: 2.83657 (Simulation time: 0 hr 3 min 24 sec) 
Heartbeat CPU 0 instructions: 20000000 cycles: 7058416 heartbeat IPC: 2.83043 cumulative IPC: 2.8335 (Simulation time: 0 hr 6 min 57 sec) 
Heartbeat CPU 0 instructions: 30000001 cycles: 10582881 heartbeat IPC: 2.83731 cumulative IPC: 2.83477 (Simulation time: 0 hr 10 min 10 sec) 
Heartbeat CPU 0 instructions: 40000003 cycles: 14113565 heartbeat IPC: 2.83231 cumulative IPC: 2.83415 (Simulation time: 0 hr 13 min 22 sec) 
Heartbeat CPU 0 instructions: 50000001 cycles: 17641889 heartbeat IPC: 2.83421 cumulative IPC: 2.83416 (Simulation time: 0 hr 16 min 18 sec) 

Warmup complete CPU 0 instructions: 50000001 cycles: 17641889 (Simulation time: 0 hr 16 min 18 sec) 

Heartbeat CPU 0 instructions: 60000002 cycles: 24632767 heartbeat IPC: 1.43044 cumulative IPC: 1.43044 (Simulation time: 0 hr 19 min 13 sec) 
Heartbeat CPU 0 instructions: 70000000 cycles: 31724158 heartbeat IPC: 1.41016 cumulative IPC: 1.42023 (Simulation time: 0 hr 22 min 12 sec) 
Heartbeat CPU 0 instructions: 80000002 cycles: 38729394 heartbeat IPC: 1.4275 cumulative IPC: 1.42264 (Simulation time: 0 hr 25 min 12 sec) 
Heartbeat CPU 0 instructions: 90000001 cycles: 45352071 heartbeat IPC: 1.50996 cumulative IPC: 1.44351 (Simulation time: 0 hr 27 min 49 sec) 
Heartbeat CPU 0 instructions: 100000003 cycles: 51670623 heartbeat IPC: 1.58264 cumulative IPC: 1.46935 (Simulation time: 0 hr 29 min 19 sec) 
Finished CPU 0 instructions: 50000002 cycles: 34028734 cumulative IPC: 1.46935 (Simulation time: 0 hr 29 min 19 sec) 

ChampSim completed all CPUs

Region of Interest Statistics

CPU 0 cumulative IPC: 1.46935 instructions: 50000002 cycles: 34028734
L1D TOTAL     ACCESS:   20230286  HIT:   18804571  MISS:    1425715
L1D LOAD      ACCESS:    7076660  HIT:    6458700  MISS:     617960
L1D RFO       ACCESS:    6384738  HIT:    6136317  MISS:     248421
L1D PREFETCH  ACCESS:    6768888  HIT:    6209554  MISS:     559334
L1D WRITEBACK ACCESS:          0  HIT:          0  MISS:          0
L1D PREFETCH  REQUESTED:    7118745  ISSUED:    6946077  USEFUL:     131887  USELESS:     427442
L1D AVERAGE MISS LATENCY: 22.8815 cycles
L1I TOTAL     ACCESS:   20223941  HIT:   16636034  MISS:    3587907
L1I LOAD      ACCESS:    9322702  HIT:    8645824  MISS:     676878
L1I RFO       ACCESS:          0  HIT:          0  MISS:          0
L1I PREFETCH  ACCESS:   10901239  HIT:    7990210  MISS:    2911029
L1I WRITEBACK ACCESS:          0  HIT:          0  MISS:          0
L1I PREFETCH  REQUESTED:   13153551  ISSUED:   13153551  USEFUL:    1860855  USELESS:    1050186
L1I AVERAGE MISS LATENCY: 14.2056 cycles
L2C TOTAL     ACCESS:    6861326  HIT:    6201424  MISS:     659902
L2C LOAD      ACCESS:     666599  HIT:     559460  MISS:     107139
L2C RFO       ACCESS:     246741  HIT:     171245  MISS:      75496
L2C PREFETCH  ACCESS:    5451222  HIT:    4978516  MISS:     472706
L2C WRITEBACK ACCESS:     496764  HIT:     492203  MISS:       4561
L2C PREFETCH  REQUESTED:    3813945  ISSUED:    3809294  USEFUL:      15774  USELESS:     456385
L2C AVERAGE MISS LATENCY: 37.3504 cycles
LLC TOTAL     ACCESS:    1822249  HIT:    1794604  MISS:      27645
LLC LOAD      ACCESS:     107045  HIT:     104098  MISS:       2947
LLC RFO       ACCESS:      75494  HIT:      64672  MISS:      10822
LLC PREFETCH  ACCESS:    1510983  HIT:    1497285  MISS:      13698
LLC WRITEBACK ACCESS:     128727  HIT:     128549  MISS:        178
LLC PREFETCH  REQUESTED:          0  ISSUED:          0  USEFUL:        939  USELESS:      12166
LLC AVERAGE MISS LATENCY: 183.141 cycles
Major fault: 0 Minor fault: 2470
CPU 0 L1D next line prefetcher final stats

DRAM Statistics
 CHANNEL 0
 RQ ROW_BUFFER_HIT:       8973  ROW_BUFFER_MISS:      18491
 DBUS_CONGESTED:      18371
 WQ ROW_BUFFER_HIT:       1241  ROW_BUFFER_MISS:      11657  FULL:          0

 AVG_CONGESTED_CYCLE: 6

CPU 0 Branch Prediction Accuracy: 99.8142% MPKI: 0.34676 Average ROB Occupancy at Mispredict: 169.306

Branch types
NOT_BRANCH: 40668771 81.3375%
BRANCH_DIRECT_JUMP: 531700 1.0634%
BRANCH_INDIRECT: 199025 0.39805%
BRANCH_CONDITIONAL: 6211473 12.4229%
BRANCH_DIRECT_CALL: 1010908 2.02182%
BRANCH_INDIRECT_CALL: 183501 0.367002%
BRANCH_RETURN: 1194411 2.38882%
BRANCH_OTHER: 0 0%

