Initialize SIGNATURE TABLE
ST_SET: 1
ST_WAY: 256
ST_TAG_BIT: 16
ST_TAG_MASK: ffff

Initialize PATTERN TABLE
PT_SET: 512
PT_WAY: 4
SIG_DELTA_BIT: 7
C_SIG_BIT: 4
C_DELTA_BIT: 4

Initialize PREFETCH FILTER
FILTER_SET: 1024

*** ChampSim Multicore Out-of-Order Simulator ***

Warmup Instructions: 50000000
Simulation Instructions: 50000000
Number of CPUs: 1
LLC sets: 2048
LLC ways: 16
Off-chip DRAM Size: 4096 MB Channels: 1 Width: 64-bit Data Rate: 3200 MT/s

CPU 0 runs /home/ykhodke/ChampSim/dpc3_traces/server_020.champsimtrace.xz
LHT KB: 126.25
SCC KB: 1.56
Total KB: 127.81
CPU 0 L1D next line prefetcher
Heartbeat CPU 0 instructions: 10000003 cycles: 3621483 heartbeat IPC: 2.7613 cumulative IPC: 2.7613 (Simulation time: 0 hr 3 min 20 sec) 
Heartbeat CPU 0 instructions: 20000002 cycles: 7247125 heartbeat IPC: 2.75813 cumulative IPC: 2.75972 (Simulation time: 0 hr 6 min 40 sec) 
Heartbeat CPU 0 instructions: 30000001 cycles: 10865657 heartbeat IPC: 2.76355 cumulative IPC: 2.76099 (Simulation time: 0 hr 9 min 55 sec) 
Heartbeat CPU 0 instructions: 40000002 cycles: 14485500 heartbeat IPC: 2.76255 cumulative IPC: 2.76138 (Simulation time: 0 hr 13 min 14 sec) 
Heartbeat CPU 0 instructions: 50000001 cycles: 18118859 heartbeat IPC: 2.75227 cumulative IPC: 2.75956 (Simulation time: 0 hr 16 min 59 sec) 

Warmup complete CPU 0 instructions: 50000001 cycles: 18118859 (Simulation time: 0 hr 16 min 59 sec) 

Heartbeat CPU 0 instructions: 60000003 cycles: 36226184 heartbeat IPC: 0.552263 cumulative IPC: 0.552263 (Simulation time: 0 hr 20 min 52 sec) 
Heartbeat CPU 0 instructions: 70000002 cycles: 54367929 heartbeat IPC: 0.551215 cumulative IPC: 0.551738 (Simulation time: 0 hr 24 min 41 sec) 
Heartbeat CPU 0 instructions: 80000002 cycles: 72426574 heartbeat IPC: 0.553751 cumulative IPC: 0.552408 (Simulation time: 0 hr 28 min 16 sec) 
Heartbeat CPU 0 instructions: 90000001 cycles: 90522123 heartbeat IPC: 0.552622 cumulative IPC: 0.552461 (Simulation time: 0 hr 29 min 45 sec) 
Heartbeat CPU 0 instructions: 100000002 cycles: 108555304 heartbeat IPC: 0.554533 cumulative IPC: 0.552874 (Simulation time: 0 hr 30 min 24 sec) 
Finished CPU 0 instructions: 50000001 cycles: 90436445 cumulative IPC: 0.552874 (Simulation time: 0 hr 30 min 24 sec) 

ChampSim completed all CPUs

Region of Interest Statistics

CPU 0 cumulative IPC: 0.552874 instructions: 50000001 cycles: 90436445
L1D TOTAL     ACCESS:   18685673  HIT:   16481298  MISS:    2204375
L1D LOAD      ACCESS:    7060611  HIT:    6326055  MISS:     734556
L1D RFO       ACCESS:    5849991  HIT:    4903800  MISS:     946191
L1D PREFETCH  ACCESS:    5775071  HIT:    5251443  MISS:     523628
L1D WRITEBACK ACCESS:          0  HIT:          0  MISS:          0
L1D PREFETCH  REQUESTED:    7101727  ISSUED:    6901249  USEFUL:     184228  USELESS:     339319
L1D AVERAGE MISS LATENCY: 175.752 cycles
L1I TOTAL     ACCESS:   20550983  HIT:   17907704  MISS:    2643279
L1I LOAD      ACCESS:   10045172  HIT:    9599355  MISS:     445817
L1I RFO       ACCESS:          0  HIT:          0  MISS:          0
L1I PREFETCH  ACCESS:   10505811  HIT:    8308349  MISS:    2197462
L1I WRITEBACK ACCESS:          0  HIT:          0  MISS:          0
L1I PREFETCH  REQUESTED:   12062445  ISSUED:   12062445  USEFUL:    1910699  USELESS:     286797
L1I AVERAGE MISS LATENCY: 14.6214 cycles
L2C TOTAL     ACCESS:    7027095  HIT:    5174451  MISS:    1852644
L2C LOAD      ACCESS:     534868  HIT:     269403  MISS:     265465
L2C RFO       ACCESS:     945497  HIT:      20026  MISS:     925471
L2C PREFETCH  ACCESS:    4383157  HIT:    3723328  MISS:     659829
L2C WRITEBACK ACCESS:    1163573  HIT:    1161694  MISS:       1879
L2C PREFETCH  REQUESTED:    3068315  ISSUED:    3067928  USEFUL:      25407  USELESS:     633365
L2C AVERAGE MISS LATENCY: 216.481 cycles
LLC TOTAL     ACCESS:    3750340  HIT:    2333756  MISS:    1416584
LLC LOAD      ACCESS:     265452  HIT:     162949  MISS:     102503
LLC RFO       ACCESS:     925468  HIT:     137801  MISS:     787667
LLC PREFETCH  ACCESS:    1461816  HIT:     937031  MISS:     524785
LLC WRITEBACK ACCESS:    1097604  HIT:    1095975  MISS:       1629
LLC PREFETCH  REQUESTED:          0  ISSUED:          0  USEFUL:      26957  USELESS:     497827
LLC AVERAGE MISS LATENCY: 276.426 cycles
Major fault: 0 Minor fault: 22097
CPU 0 L1D next line prefetcher final stats

DRAM Statistics
 CHANNEL 0
 RQ ROW_BUFFER_HIT:     389265  ROW_BUFFER_MISS:    1025466
 DBUS_CONGESTED:    1394747
 WQ ROW_BUFFER_HIT:     277584  ROW_BUFFER_MISS:     610581  FULL:          0

 AVG_CONGESTED_CYCLE: 6

CPU 0 Branch Prediction Accuracy: 99.712% MPKI: 0.47638 Average ROB Occupancy at Mispredict: 211.619

Branch types
NOT_BRANCH: 41729512 83.459%
BRANCH_DIRECT_JUMP: 458221 0.916442%
BRANCH_INDIRECT: 49088 0.098176%
BRANCH_CONDITIONAL: 5938532 11.8771%
BRANCH_DIRECT_CALL: 745131 1.49026%
BRANCH_INDIRECT_CALL: 167109 0.334218%
BRANCH_RETURN: 912222 1.82444%
BRANCH_OTHER: 0 0%

