Initialize SIGNATURE TABLE
ST_SET: 1
ST_WAY: 256
ST_TAG_BIT: 16
ST_TAG_MASK: ffff

Initialize PATTERN TABLE
PT_SET: 512
PT_WAY: 4
SIG_DELTA_BIT: 7
C_SIG_BIT: 4
C_DELTA_BIT: 4

Initialize PREFETCH FILTER
FILTER_SET: 1024

*** ChampSim Multicore Out-of-Order Simulator ***

Warmup Instructions: 50000000
Simulation Instructions: 50000000
Number of CPUs: 1
LLC sets: 2048
LLC ways: 16
Off-chip DRAM Size: 4096 MB Channels: 1 Width: 64-bit Data Rate: 3200 MT/s

CPU 0 runs /home/ykhodke/ChampSim/dpc3_traces/server_017.champsimtrace.xz
L1I D-JOLT instruction prefetcher has been constructed!
CPU 0 L1D next line prefetcher
Heartbeat CPU 0 instructions: 10000001 cycles: 3622667 heartbeat IPC: 2.7604 cumulative IPC: 2.7604 (Simulation time: 0 hr 2 min 55 sec) 
Heartbeat CPU 0 instructions: 20000000 cycles: 7243366 heartbeat IPC: 2.7619 cumulative IPC: 2.76115 (Simulation time: 0 hr 5 min 46 sec) 
Heartbeat CPU 0 instructions: 30000002 cycles: 10870771 heartbeat IPC: 2.75679 cumulative IPC: 2.75969 (Simulation time: 0 hr 8 min 49 sec) 
Heartbeat CPU 0 instructions: 40000000 cycles: 14493481 heartbeat IPC: 2.76036 cumulative IPC: 2.75986 (Simulation time: 0 hr 12 min 11 sec) 
Heartbeat CPU 0 instructions: 50000001 cycles: 18127364 heartbeat IPC: 2.75188 cumulative IPC: 2.75826 (Simulation time: 0 hr 15 min 43 sec) 

Warmup complete CPU 0 instructions: 50000001 cycles: 18127364 (Simulation time: 0 hr 15 min 43 sec) 

Heartbeat CPU 0 instructions: 60000002 cycles: 35500018 heartbeat IPC: 0.575617 cumulative IPC: 0.575617 (Simulation time: 0 hr 19 min 57 sec) 
Heartbeat CPU 0 instructions: 70000002 cycles: 52989577 heartbeat IPC: 0.57177 cumulative IPC: 0.573687 (Simulation time: 0 hr 23 min 48 sec) 
Heartbeat CPU 0 instructions: 80000000 cycles: 70274610 heartbeat IPC: 0.578535 cumulative IPC: 0.575294 (Simulation time: 0 hr 27 min 24 sec) 
Heartbeat CPU 0 instructions: 90000002 cycles: 93467696 heartbeat IPC: 0.431163 cumulative IPC: 0.530924 (Simulation time: 0 hr 29 min 25 sec) 
Heartbeat CPU 0 instructions: 100000003 cycles: 113336084 heartbeat IPC: 0.503312 cumulative IPC: 0.525162 (Simulation time: 0 hr 30 min 6 sec) 
Finished CPU 0 instructions: 50000002 cycles: 95208720 cumulative IPC: 0.525162 (Simulation time: 0 hr 30 min 6 sec) 

ChampSim completed all CPUs

Region of Interest Statistics

CPU 0 cumulative IPC: 0.525162 instructions: 50000002 cycles: 95208720
L1D TOTAL     ACCESS:   18373528  HIT:   16207985  MISS:    2165543
L1D LOAD      ACCESS:    7025193  HIT:    6282131  MISS:     743062
L1D RFO       ACCESS:    5511939  HIT:    4652715  MISS:     859224
L1D PREFETCH  ACCESS:    5836396  HIT:    5273139  MISS:     563257
L1D WRITEBACK ACCESS:          0  HIT:          0  MISS:          0
L1D PREFETCH  REQUESTED:    7061899  ISSUED:    6872131  USEFUL:     200903  USELESS:     362415
L1D AVERAGE MISS LATENCY: 176.922 cycles
L1I TOTAL     ACCESS:   17638052  HIT:   14623641  MISS:    3014411
L1I LOAD      ACCESS:    9908225  HIT:    9871600  MISS:      36625
L1I RFO       ACCESS:          0  HIT:          0  MISS:          0
L1I PREFETCH  ACCESS:    7729827  HIT:    4752041  MISS:    2977786
L1I WRITEBACK ACCESS:          0  HIT:          0  MISS:          0
L1I PREFETCH  REQUESTED:    8321868  ISSUED:    8276463  USEFUL:    2428812  USELESS:     548980
L1I AVERAGE MISS LATENCY: 18.1918 cycles
L2C TOTAL     ACCESS:    7606322  HIT:    5760881  MISS:    1845441
L2C LOAD      ACCESS:     571037  HIT:     241452  MISS:     329585
L2C RFO       ACCESS:     858717  HIT:      17778  MISS:     840939
L2C PREFETCH  ACCESS:    5053652  HIT:    4380766  MISS:     672886
L2C WRITEBACK ACCESS:    1122916  HIT:    1120885  MISS:       2031
L2C PREFETCH  REQUESTED:    4757264  ISSUED:    4752410  USEFUL:      20951  USELESS:     652638
L2C AVERAGE MISS LATENCY: 211.248 cycles
LLC TOTAL     ACCESS:    4247105  HIT:    2662574  MISS:    1584531
LLC LOAD      ACCESS:     329495  HIT:     174001  MISS:     155494
LLC RFO       ACCESS:     840937  HIT:     122212  MISS:     718725
LLC PREFETCH  ACCESS:    2014762  HIT:    1307175  MISS:     707587
LLC WRITEBACK ACCESS:    1061911  HIT:    1059186  MISS:       2725
LLC PREFETCH  REQUESTED:          0  ISSUED:          0  USEFUL:      49498  USELESS:     656902
LLC AVERAGE MISS LATENCY: 268.534 cycles
Major fault: 0 Minor fault: 24698
CPU 0 L1D next line prefetcher final stats

DRAM Statistics
 CHANNEL 0
 RQ ROW_BUFFER_HIT:     378471  ROW_BUFFER_MISS:    1203133
 DBUS_CONGESTED:    1529167
 WQ ROW_BUFFER_HIT:     242530  ROW_BUFFER_MISS:     636184  FULL:          0

 AVG_CONGESTED_CYCLE: 6

CPU 0 Branch Prediction Accuracy: 99.2833% MPKI: 1.20568 Average ROB Occupancy at Mispredict: 182.401

Branch types
NOT_BRANCH: 41588346 83.1767%
BRANCH_DIRECT_JUMP: 464501 0.929002%
BRANCH_INDIRECT: 45704 0.091408%
BRANCH_CONDITIONAL: 6147408 12.2948%
BRANCH_DIRECT_CALL: 675450 1.3509%
BRANCH_INDIRECT_CALL: 201532 0.403064%
BRANCH_RETURN: 876985 1.75397%
BRANCH_OTHER: 0 0%

