Initialize SIGNATURE TABLE
ST_SET: 1
ST_WAY: 256
ST_TAG_BIT: 16
ST_TAG_MASK: ffff

Initialize PATTERN TABLE
PT_SET: 512
PT_WAY: 4
SIG_DELTA_BIT: 7
C_SIG_BIT: 4
C_DELTA_BIT: 4

Initialize PREFETCH FILTER
FILTER_SET: 1024

*** ChampSim Multicore Out-of-Order Simulator ***

Warmup Instructions: 50000000
Simulation Instructions: 50000000
Number of CPUs: 1
LLC sets: 2048
LLC ways: 16
Off-chip DRAM Size: 4096 MB Channels: 1 Width: 64-bit Data Rate: 3200 MT/s

CPU 0 runs /home/ykhodke/ChampSim/dpc3_traces/server_037.champsimtrace.xz
CPU 0 EPI prefetcher
CPU 0 L1D next line prefetcher
Heartbeat CPU 0 instructions: 10000001 cycles: 3319092 heartbeat IPC: 3.01287 cumulative IPC: 3.01287 (Simulation time: 0 hr 4 min 27 sec) 
Heartbeat CPU 0 instructions: 20000002 cycles: 6635687 heartbeat IPC: 3.01514 cumulative IPC: 3.01401 (Simulation time: 0 hr 8 min 54 sec) 
Heartbeat CPU 0 instructions: 30000003 cycles: 10000193 heartbeat IPC: 2.9722 cumulative IPC: 2.99994 (Simulation time: 0 hr 13 min 14 sec) 
Heartbeat CPU 0 instructions: 40000000 cycles: 13318690 heartbeat IPC: 3.01341 cumulative IPC: 3.0033 (Simulation time: 0 hr 17 min 34 sec) 
Heartbeat CPU 0 instructions: 50000003 cycles: 16636552 heartbeat IPC: 3.01399 cumulative IPC: 3.00543 (Simulation time: 0 hr 21 min 40 sec) 

Warmup complete CPU 0 instructions: 50000003 cycles: 16636552 (Simulation time: 0 hr 21 min 40 sec) 

Heartbeat CPU 0 instructions: 60000001 cycles: 23024163 heartbeat IPC: 1.56553 cumulative IPC: 1.56553 (Simulation time: 0 hr 25 min 12 sec) 
Heartbeat CPU 0 instructions: 70000000 cycles: 29509152 heartbeat IPC: 1.54202 cumulative IPC: 1.55369 (Simulation time: 0 hr 28 min 41 sec) 
Heartbeat CPU 0 instructions: 80000000 cycles: 35886352 heartbeat IPC: 1.56809 cumulative IPC: 1.55846 (Simulation time: 0 hr 32 min 1 sec) 
Heartbeat CPU 0 instructions: 90000002 cycles: 42276167 heartbeat IPC: 1.56499 cumulative IPC: 1.56009 (Simulation time: 0 hr 34 min 10 sec) 
*** Reached end of trace for Core: 0 Repeating trace: /home/ykhodke/ChampSim/dpc3_traces/server_037.champsimtrace.xz
Heartbeat CPU 0 instructions: 100000000 cycles: 48672698 heartbeat IPC: 1.56335 cumulative IPC: 1.56074 (Simulation time: 0 hr 35 min 9 sec) 
Finished CPU 0 instructions: 50000001 cycles: 32036147 cumulative IPC: 1.56074 (Simulation time: 0 hr 35 min 9 sec) 

ChampSim completed all CPUs

Region of Interest Statistics

CPU 0 cumulative IPC: 1.56074 instructions: 50000001 cycles: 32036147
L1D TOTAL     ACCESS:   18691055  HIT:   17713068  MISS:     977987
L1D LOAD      ACCESS:    6361415  HIT:    5870175  MISS:     491240
L1D RFO       ACCESS:    6205140  HIT:    6141154  MISS:      63986
L1D PREFETCH  ACCESS:    6124500  HIT:    5701739  MISS:     422761
L1D WRITEBACK ACCESS:          0  HIT:          0  MISS:          0
L1D PREFETCH  REQUESTED:    6397688  ISSUED:    6244678  USEFUL:     117635  USELESS:     305131
L1D AVERAGE MISS LATENCY: 28.8349 cycles
L1I TOTAL     ACCESS:   29349364  HIT:   25010449  MISS:    4338915
L1I LOAD      ACCESS:    9429856  HIT:    9409067  MISS:      20789
L1I RFO       ACCESS:          0  HIT:          0  MISS:          0
L1I PREFETCH  ACCESS:   19919508  HIT:   15601382  MISS:    4318126
L1I WRITEBACK ACCESS:          0  HIT:          0  MISS:          0
L1I PREFETCH  REQUESTED:   23529428  ISSUED:   23529428  USEFUL:    4012366  USELESS:     305775
L1I AVERAGE MISS LATENCY: 15.0477 cycles
L2C TOTAL     ACCESS:    7994658  HIT:    7688267  MISS:     306391
L2C LOAD      ACCESS:     496682  HIT:     359914  MISS:     136768
L2C RFO       ACCESS:      63678  HIT:      36898  MISS:      26780
L2C PREFETCH  ACCESS:    7144828  HIT:    7002917  MISS:     141911
L2C WRITEBACK ACCESS:     289470  HIT:     288538  MISS:        932
L2C PREFETCH  REQUESTED:    6972976  ISSUED:    6964099  USEFUL:       6961  USELESS:     134787
L2C AVERAGE MISS LATENCY: 45.9609 cycles
LLC TOTAL     ACCESS:    1510618  HIT:    1456230  MISS:      54388
LLC LOAD      ACCESS:     136747  HIT:     123573  MISS:      13174
LLC RFO       ACCESS:      26780  HIT:      21944  MISS:       4836
LLC PREFETCH  ACCESS:    1211424  HIT:    1175621  MISS:      35803
LLC WRITEBACK ACCESS:     135667  HIT:     135092  MISS:        575
LLC PREFETCH  REQUESTED:          0  ISSUED:          0  USEFUL:       3448  USELESS:      32611
LLC AVERAGE MISS LATENCY: 164.046 cycles
Major fault: 0 Minor fault: 5653
CPU 0 L1I EPI prefetcher final stats
CPU 0 L1D next line prefetcher final stats

DRAM Statistics
 CHANNEL 0
 RQ ROW_BUFFER_HIT:       9490  ROW_BUFFER_MISS:      44320
 DBUS_CONGESTED:      21891
 WQ ROW_BUFFER_HIT:       1262  ROW_BUFFER_MISS:      10183  FULL:          0

 AVG_CONGESTED_CYCLE: 4

CPU 0 Branch Prediction Accuracy: 99.913% MPKI: 0.15656 Average ROB Occupancy at Mispredict: 225.983

Branch types
NOT_BRANCH: 41001718 82.0034%
BRANCH_DIRECT_JUMP: 541941 1.08388%
BRANCH_INDIRECT: 59716 0.119432%
BRANCH_CONDITIONAL: 5916853 11.8337%
BRANCH_DIRECT_CALL: 1005464 2.01093%
BRANCH_INDIRECT_CALL: 234433 0.468866%
BRANCH_RETURN: 1239877 2.47975%
BRANCH_OTHER: 0 0%

