Initialize SIGNATURE TABLE
ST_SET: 1
ST_WAY: 256
ST_TAG_BIT: 16
ST_TAG_MASK: ffff

Initialize PATTERN TABLE
PT_SET: 512
PT_WAY: 4
SIG_DELTA_BIT: 7
C_SIG_BIT: 4
C_DELTA_BIT: 4

Initialize PREFETCH FILTER
FILTER_SET: 1024

*** ChampSim Multicore Out-of-Order Simulator ***

Warmup Instructions: 50000000
Simulation Instructions: 50000000
Number of CPUs: 1
LLC sets: 2048
LLC ways: 16
Off-chip DRAM Size: 4096 MB Channels: 1 Width: 64-bit Data Rate: 3200 MT/s

CPU 0 runs /home/ykhodke/ChampSim/dpc3_traces/server_034.champsimtrace.xz
LHT KB: 126.25
SCC KB: 1.56
Total KB: 127.81
CPU 0 L1D next line prefetcher
Heartbeat CPU 0 instructions: 10000000 cycles: 3329826 heartbeat IPC: 3.00316 cumulative IPC: 3.00316 (Simulation time: 0 hr 3 min 53 sec) 
Heartbeat CPU 0 instructions: 20000002 cycles: 6652644 heartbeat IPC: 3.00949 cumulative IPC: 3.00632 (Simulation time: 0 hr 7 min 11 sec) 
Heartbeat CPU 0 instructions: 30000003 cycles: 9983906 heartbeat IPC: 3.00187 cumulative IPC: 3.00484 (Simulation time: 0 hr 10 min 55 sec) 
Heartbeat CPU 0 instructions: 40000001 cycles: 13312877 heartbeat IPC: 3.00393 cumulative IPC: 3.00461 (Simulation time: 0 hr 14 min 7 sec) 
Heartbeat CPU 0 instructions: 50000000 cycles: 16641022 heartbeat IPC: 3.00468 cumulative IPC: 3.00462 (Simulation time: 0 hr 17 min 33 sec) 

Warmup complete CPU 0 instructions: 50000002 cycles: 16641023 (Simulation time: 0 hr 17 min 33 sec) 

Heartbeat CPU 0 instructions: 60000002 cycles: 22644921 heartbeat IPC: 1.66558 cumulative IPC: 1.66558 (Simulation time: 0 hr 20 min 50 sec) 
Heartbeat CPU 0 instructions: 70000003 cycles: 28986762 heartbeat IPC: 1.57683 cumulative IPC: 1.61999 (Simulation time: 0 hr 24 min 12 sec) 
Heartbeat CPU 0 instructions: 80000002 cycles: 35080040 heartbeat IPC: 1.64115 cumulative IPC: 1.62698 (Simulation time: 0 hr 27 min 19 sec) 
Heartbeat CPU 0 instructions: 90000002 cycles: 41169985 heartbeat IPC: 1.64205 cumulative IPC: 1.63073 (Simulation time: 0 hr 29 min 18 sec) 
Heartbeat CPU 0 instructions: 100000002 cycles: 47217214 heartbeat IPC: 1.65365 cumulative IPC: 1.63526 (Simulation time: 0 hr 30 min 22 sec) 
Finished CPU 0 instructions: 50000000 cycles: 30576191 cumulative IPC: 1.63526 (Simulation time: 0 hr 30 min 22 sec) 

ChampSim completed all CPUs

Region of Interest Statistics

CPU 0 cumulative IPC: 1.63526 instructions: 50000000 cycles: 30576191
L1D TOTAL     ACCESS:   18387504  HIT:   16963282  MISS:    1424222
L1D LOAD      ACCESS:    6201225  HIT:    5545472  MISS:     655753
L1D RFO       ACCESS:    6163785  HIT:    6020988  MISS:     142797
L1D PREFETCH  ACCESS:    6022494  HIT:    5396822  MISS:     625672
L1D WRITEBACK ACCESS:          0  HIT:          0  MISS:          0
L1D PREFETCH  REQUESTED:    6236487  ISSUED:    6150630  USEFUL:     141168  USELESS:     484473
L1D AVERAGE MISS LATENCY: 17.3781 cycles
L1I TOTAL     ACCESS:   22731114  HIT:   18167906  MISS:    4563208
L1I LOAD      ACCESS:    9527506  HIT:    8902279  MISS:     625227
L1I RFO       ACCESS:          0  HIT:          0  MISS:          0
L1I PREFETCH  ACCESS:   13203608  HIT:    9265627  MISS:    3937981
L1I WRITEBACK ACCESS:          0  HIT:          0  MISS:          0
L1I PREFETCH  REQUESTED:   15641167  ISSUED:   15641167  USEFUL:    2792511  USELESS:    1145458
L1I AVERAGE MISS LATENCY: 12.9059 cycles
L2C TOTAL     ACCESS:    7996453  HIT:    7900686  MISS:      95767
L2C LOAD      ACCESS:     727401  HIT:     690825  MISS:      36576
L2C RFO       ACCESS:     140970  HIT:     132936  MISS:       8034
L2C PREFETCH  ACCESS:    6777404  HIT:    6727350  MISS:      50054
L2C WRITEBACK ACCESS:     350678  HIT:     349575  MISS:       1103
L2C PREFETCH  REQUESTED:    4794167  ISSUED:    4792217  USEFUL:       3575  USELESS:      45553
L2C AVERAGE MISS LATENCY: 39.3937 cycles
LLC TOTAL     ACCESS:    1369156  HIT:    1357822  MISS:      11334
LLC LOAD      ACCESS:      36507  HIT:      34241  MISS:       2266
LLC RFO       ACCESS:       8034  HIT:       7813  MISS:        221
LLC PREFETCH  ACCESS:    1288063  HIT:    1279251  MISS:       8812
LLC WRITEBACK ACCESS:      36552  HIT:      36517  MISS:         35
LLC PREFETCH  REQUESTED:          0  ISSUED:          0  USEFUL:       2774  USELESS:       3654
LLC AVERAGE MISS LATENCY: 147.396 cycles
Major fault: 0 Minor fault: 1180
CPU 0 L1D next line prefetcher final stats

DRAM Statistics
 CHANNEL 0
 RQ ROW_BUFFER_HIT:       3621  ROW_BUFFER_MISS:       7673
 DBUS_CONGESTED:       4865
 WQ ROW_BUFFER_HIT:        622  ROW_BUFFER_MISS:       2276  FULL:          0

 AVG_CONGESTED_CYCLE: 5

CPU 0 Branch Prediction Accuracy: 99.926% MPKI: 0.14472 Average ROB Occupancy at Mispredict: 216.953

Branch types
NOT_BRANCH: 40220951 80.4419%
BRANCH_DIRECT_JUMP: 771319 1.54264%
BRANCH_INDIRECT: 108663 0.217326%
BRANCH_CONDITIONAL: 6375027 12.7501%
BRANCH_DIRECT_CALL: 1049634 2.09927%
BRANCH_INDIRECT_CALL: 212281 0.424562%
BRANCH_RETURN: 1261922 2.52384%
BRANCH_OTHER: 0 0%

