Initialize SIGNATURE TABLE
ST_SET: 1
ST_WAY: 256
ST_TAG_BIT: 16
ST_TAG_MASK: ffff

Initialize PATTERN TABLE
PT_SET: 512
PT_WAY: 4
SIG_DELTA_BIT: 7
C_SIG_BIT: 4
C_DELTA_BIT: 4

Initialize PREFETCH FILTER
FILTER_SET: 1024

*** ChampSim Multicore Out-of-Order Simulator ***

Warmup Instructions: 50000000
Simulation Instructions: 50000000
Number of CPUs: 1
LLC sets: 2048
LLC ways: 16
Off-chip DRAM Size: 4096 MB Channels: 1 Width: 64-bit Data Rate: 3200 MT/s

CPU 0 runs /home/ykhodke/ChampSim/dpc3_traces/server_022.champsimtrace.xz
L1I D-JOLT instruction prefetcher has been constructed!
CPU 0 L1D next line prefetcher
Heartbeat CPU 0 instructions: 10000002 cycles: 3623551 heartbeat IPC: 2.75972 cumulative IPC: 2.75972 (Simulation time: 0 hr 3 min 31 sec) 
Heartbeat CPU 0 instructions: 20000001 cycles: 7253884 heartbeat IPC: 2.75457 cumulative IPC: 2.75714 (Simulation time: 0 hr 6 min 55 sec) 
Heartbeat CPU 0 instructions: 30000003 cycles: 10877989 heartbeat IPC: 2.7593 cumulative IPC: 2.75786 (Simulation time: 0 hr 10 min 22 sec) 
Heartbeat CPU 0 instructions: 40000003 cycles: 14509359 heartbeat IPC: 2.75378 cumulative IPC: 2.75684 (Simulation time: 0 hr 13 min 49 sec) 
Heartbeat CPU 0 instructions: 50000002 cycles: 18130627 heartbeat IPC: 2.76146 cumulative IPC: 2.75776 (Simulation time: 0 hr 17 min 12 sec) 

Warmup complete CPU 0 instructions: 50000002 cycles: 18130627 (Simulation time: 0 hr 17 min 12 sec) 

Heartbeat CPU 0 instructions: 60000000 cycles: 34836225 heartbeat IPC: 0.598602 cumulative IPC: 0.598602 (Simulation time: 0 hr 21 min 28 sec) 
Heartbeat CPU 0 instructions: 70000001 cycles: 51618227 heartbeat IPC: 0.595877 cumulative IPC: 0.597236 (Simulation time: 0 hr 25 min 38 sec) 
Heartbeat CPU 0 instructions: 80000001 cycles: 68214869 heartbeat IPC: 0.602532 cumulative IPC: 0.598991 (Simulation time: 0 hr 29 min 31 sec) 
Heartbeat CPU 0 instructions: 90000003 cycles: 85040656 heartbeat IPC: 0.594326 cumulative IPC: 0.597818 (Simulation time: 0 hr 31 min 30 sec) 
Heartbeat CPU 0 instructions: 100000003 cycles: 101673959 heartbeat IPC: 0.601204 cumulative IPC: 0.598492 (Simulation time: 0 hr 32 min 11 sec) 
Finished CPU 0 instructions: 50000001 cycles: 83543332 cumulative IPC: 0.598492 (Simulation time: 0 hr 32 min 11 sec) 

ChampSim completed all CPUs

Region of Interest Statistics

CPU 0 cumulative IPC: 0.598492 instructions: 50000001 cycles: 83543332
L1D TOTAL     ACCESS:   18684993  HIT:   16474214  MISS:    2210779
L1D LOAD      ACCESS:    7050414  HIT:    6346507  MISS:     703907
L1D RFO       ACCESS:    5882541  HIT:    4903150  MISS:     979391
L1D PREFETCH  ACCESS:    5752038  HIT:    5224557  MISS:     527481
L1D WRITEBACK ACCESS:          0  HIT:          0  MISS:          0
L1D PREFETCH  REQUESTED:    7092410  ISSUED:    6884908  USEFUL:     206259  USELESS:     321227
L1D AVERAGE MISS LATENCY: 182.223 cycles
L1I TOTAL     ACCESS:   18984314  HIT:   15392025  MISS:    3592289
L1I LOAD      ACCESS:   10176153  HIT:   10136194  MISS:      39959
L1I RFO       ACCESS:          0  HIT:          0  MISS:          0
L1I PREFETCH  ACCESS:    8808161  HIT:    5255831  MISS:    3552330
L1I WRITEBACK ACCESS:          0  HIT:          0  MISS:          0
L1I PREFETCH  REQUESTED:    9465720  ISSUED:    9385467  USEFUL:    2811020  USELESS:     741326
L1I AVERAGE MISS LATENCY: 17.4698 cycles
L2C TOTAL     ACCESS:    8529615  HIT:    6661060  MISS:    1868555
L2C LOAD      ACCESS:     510249  HIT:     263911  MISS:     246338
L2C RFO       ACCESS:     978921  HIT:      20331  MISS:     958590
L2C PREFETCH  ACCESS:    5855329  HIT:    5194523  MISS:     660806
L2C WRITEBACK ACCESS:    1185116  HIT:    1182295  MISS:       2821
L2C PREFETCH  REQUESTED:    5237042  ISSUED:    5230007  USEFUL:      19515  USELESS:     641363
L2C AVERAGE MISS LATENCY: 221.124 cycles
LLC TOTAL     ACCESS:    4314771  HIT:    2909051  MISS:    1405720
LLC LOAD      ACCESS:     246260  HIT:     173893  MISS:      72367
LLC RFO       ACCESS:     958588  HIT:     140024  MISS:     818564
LLC PREFETCH  ACCESS:    1991263  HIT:    1478525  MISS:     512738
LLC WRITEBACK ACCESS:    1118660  HIT:    1116609  MISS:       2051
LLC PREFETCH  REQUESTED:          0  ISSUED:          0  USEFUL:      28009  USELESS:     485156
LLC AVERAGE MISS LATENCY: 298.82 cycles
Major fault: 0 Minor fault: 23509
CPU 0 L1D next line prefetcher final stats

DRAM Statistics
 CHANNEL 0
 RQ ROW_BUFFER_HIT:     400405  ROW_BUFFER_MISS:    1002937
 DBUS_CONGESTED:    1452739
 WQ ROW_BUFFER_HIT:     255802  ROW_BUFFER_MISS:     645138  FULL:          0

 AVG_CONGESTED_CYCLE: 6

CPU 0 Branch Prediction Accuracy: 99.8317% MPKI: 0.27564 Average ROB Occupancy at Mispredict: 222.892

Branch types
NOT_BRANCH: 41811143 83.6223%
BRANCH_DIRECT_JUMP: 445742 0.891484%
BRANCH_INDIRECT: 48876 0.097752%
BRANCH_CONDITIONAL: 5859406 11.7188%
BRANCH_DIRECT_CALL: 758267 1.51653%
BRANCH_INDIRECT_CALL: 159103 0.318206%
BRANCH_RETURN: 917372 1.83474%
BRANCH_OTHER: 0 0%

