Initialize SIGNATURE TABLE
ST_SET: 1
ST_WAY: 256
ST_TAG_BIT: 16
ST_TAG_MASK: ffff

Initialize PATTERN TABLE
PT_SET: 512
PT_WAY: 4
SIG_DELTA_BIT: 7
C_SIG_BIT: 4
C_DELTA_BIT: 4

Initialize PREFETCH FILTER
FILTER_SET: 1024

*** ChampSim Multicore Out-of-Order Simulator ***

Warmup Instructions: 50000000
Simulation Instructions: 50000000
Number of CPUs: 1
LLC sets: 2048
LLC ways: 16
Off-chip DRAM Size: 4096 MB Channels: 1 Width: 64-bit Data Rate: 3200 MT/s

CPU 0 runs /home/ykhodke/ChampSim/dpc3_traces/server_036.champsimtrace.xz
L1I D-JOLT instruction prefetcher has been constructed!
CPU 0 L1D next line prefetcher
Heartbeat CPU 0 instructions: 10000000 cycles: 3458970 heartbeat IPC: 2.89103 cumulative IPC: 2.89103 (Simulation time: 0 hr 2 min 48 sec) 
Heartbeat CPU 0 instructions: 20000000 cycles: 6924761 heartbeat IPC: 2.88534 cumulative IPC: 2.88819 (Simulation time: 0 hr 5 min 36 sec) 
Heartbeat CPU 0 instructions: 30000003 cycles: 10432815 heartbeat IPC: 2.85058 cumulative IPC: 2.87554 (Simulation time: 0 hr 8 min 20 sec) 
Heartbeat CPU 0 instructions: 40000000 cycles: 13895317 heartbeat IPC: 2.88808 cumulative IPC: 2.87867 (Simulation time: 0 hr 11 min 2 sec) 
Heartbeat CPU 0 instructions: 50000002 cycles: 17357019 heartbeat IPC: 2.88875 cumulative IPC: 2.88068 (Simulation time: 0 hr 13 min 45 sec) 

Warmup complete CPU 0 instructions: 50000002 cycles: 17357019 (Simulation time: 0 hr 13 min 45 sec) 

Heartbeat CPU 0 instructions: 60000000 cycles: 22934864 heartbeat IPC: 1.79281 cumulative IPC: 1.79281 (Simulation time: 0 hr 16 min 33 sec) 
Heartbeat CPU 0 instructions: 70000001 cycles: 28463882 heartbeat IPC: 1.80864 cumulative IPC: 1.80069 (Simulation time: 0 hr 19 min 25 sec) 
Heartbeat CPU 0 instructions: 80000001 cycles: 34024505 heartbeat IPC: 1.79836 cumulative IPC: 1.79991 (Simulation time: 0 hr 22 min 19 sec) 
Heartbeat CPU 0 instructions: 90000002 cycles: 39560725 heartbeat IPC: 1.80629 cumulative IPC: 1.8015 (Simulation time: 0 hr 25 min 12 sec) 
Heartbeat CPU 0 instructions: 100000001 cycles: 45086487 heartbeat IPC: 1.80971 cumulative IPC: 1.80314 (Simulation time: 0 hr 27 min 29 sec) 
Finished CPU 0 instructions: 50000003 cycles: 27729469 cumulative IPC: 1.80314 (Simulation time: 0 hr 27 min 29 sec) 

ChampSim completed all CPUs

Region of Interest Statistics

CPU 0 cumulative IPC: 1.80314 instructions: 50000003 cycles: 27729469
L1D TOTAL     ACCESS:   20411672  HIT:   20351498  MISS:      60174
L1D LOAD      ACCESS:    6637352  HIT:    6602539  MISS:      34813
L1D RFO       ACCESS:    7342736  HIT:    7335518  MISS:       7218
L1D PREFETCH  ACCESS:    6431584  HIT:    6413441  MISS:      18143
L1D WRITEBACK ACCESS:          0  HIT:          0  MISS:          0
L1D PREFETCH  REQUESTED:    6638319  ISSUED:    6461762  USEFUL:       5461  USELESS:      12683
L1D AVERAGE MISS LATENCY: 18.0379 cycles
L1I TOTAL     ACCESS:   16709770  HIT:   12035759  MISS:    4674011
L1I LOAD      ACCESS:    8909369  HIT:    8908815  MISS:        554
L1I RFO       ACCESS:          0  HIT:          0  MISS:          0
L1I PREFETCH  ACCESS:    7800401  HIT:    3126944  MISS:    4673457
L1I WRITEBACK ACCESS:          0  HIT:          0  MISS:          0
L1I PREFETCH  REQUESTED:    7971291  ISSUED:    7971246  USEFUL:    3951600  USELESS:     721833
L1I AVERAGE MISS LATENCY: 14.6992 cycles
L2C TOTAL     ACCESS:    6711984  HIT:    6709854  MISS:       2130
L2C LOAD      ACCESS:      35170  HIT:      34767  MISS:        403
L2C RFO       ACCESS:       7211  HIT:       7158  MISS:         53
L2C PREFETCH  ACCESS:    6653977  HIT:    6652309  MISS:       1668
L2C WRITEBACK ACCESS:      15626  HIT:      15620  MISS:          6
L2C PREFETCH  REQUESTED:    5573864  ISSUED:    5571890  USEFUL:        258  USELESS:        957
L2C AVERAGE MISS LATENCY: 175.078 cycles
LLC TOTAL     ACCESS:    1107363  HIT:    1104439  MISS:       2924
LLC LOAD      ACCESS:        400  HIT:        137  MISS:        263
LLC RFO       ACCESS:         53  HIT:          9  MISS:         44
LLC PREFETCH  ACCESS:    1106104  HIT:    1103489  MISS:       2615
LLC WRITEBACK ACCESS:        806  HIT:        804  MISS:          2
LLC PREFETCH  REQUESTED:          0  ISSUED:          0  USEFUL:         69  USELESS:        648
LLC AVERAGE MISS LATENCY: 292.954 cycles
Major fault: 0 Minor fault: 1932
CPU 0 L1D next line prefetcher final stats

DRAM Statistics
 CHANNEL 0
 RQ ROW_BUFFER_HIT:        553  ROW_BUFFER_MISS:       2369
 DBUS_CONGESTED:       1820
 WQ ROW_BUFFER_HIT:        327  ROW_BUFFER_MISS:       1770  FULL:          0

 AVG_CONGESTED_CYCLE: 6

CPU 0 Branch Prediction Accuracy: 99.8717% MPKI: 0.21174 Average ROB Occupancy at Mispredict: 232.63

Branch types
NOT_BRANCH: 41748430 83.4969%
BRANCH_DIRECT_JUMP: 468563 0.937126%
BRANCH_INDIRECT: 0 0%
BRANCH_CONDITIONAL: 5599753 11.1995%
BRANCH_DIRECT_CALL: 885105 1.77021%
BRANCH_INDIRECT_CALL: 206338 0.412676%
BRANCH_RETURN: 1091467 2.18293%
BRANCH_OTHER: 0 0%

