Initialize SIGNATURE TABLE
ST_SET: 1
ST_WAY: 256
ST_TAG_BIT: 16
ST_TAG_MASK: ffff

Initialize PATTERN TABLE
PT_SET: 512
PT_WAY: 4
SIG_DELTA_BIT: 7
C_SIG_BIT: 4
C_DELTA_BIT: 4

Initialize PREFETCH FILTER
FILTER_SET: 1024

*** ChampSim Multicore Out-of-Order Simulator ***

Warmup Instructions: 50000000
Simulation Instructions: 50000000
Number of CPUs: 1
LLC sets: 2048
LLC ways: 16
Off-chip DRAM Size: 4096 MB Channels: 1 Width: 64-bit Data Rate: 3200 MT/s

CPU 0 runs /home/ykhodke/ChampSim/dpc3_traces/server_017.champsimtrace.xz
LHT KB: 126.25
SCC KB: 1.56
Total KB: 127.81
CPU 0 L1D next line prefetcher
Heartbeat CPU 0 instructions: 10000001 cycles: 3622088 heartbeat IPC: 2.76084 cumulative IPC: 2.76084 (Simulation time: 0 hr 3 min 22 sec) 
Heartbeat CPU 0 instructions: 20000000 cycles: 7241973 heartbeat IPC: 2.76252 cumulative IPC: 2.76168 (Simulation time: 0 hr 6 min 52 sec) 
Heartbeat CPU 0 instructions: 30000002 cycles: 10868708 heartbeat IPC: 2.7573 cumulative IPC: 2.76022 (Simulation time: 0 hr 9 min 48 sec) 
Heartbeat CPU 0 instructions: 40000000 cycles: 14490410 heartbeat IPC: 2.76113 cumulative IPC: 2.76045 (Simulation time: 0 hr 13 min 4 sec) 
Heartbeat CPU 0 instructions: 50000001 cycles: 18122938 heartbeat IPC: 2.7529 cumulative IPC: 2.75893 (Simulation time: 0 hr 16 min 26 sec) 

Warmup complete CPU 0 instructions: 50000001 cycles: 18122938 (Simulation time: 0 hr 16 min 26 sec) 

Heartbeat CPU 0 instructions: 60000002 cycles: 36181821 heartbeat IPC: 0.553744 cumulative IPC: 0.553744 (Simulation time: 0 hr 20 min 50 sec) 
Heartbeat CPU 0 instructions: 70000002 cycles: 54501151 heartbeat IPC: 0.545871 cumulative IPC: 0.54978 (Simulation time: 0 hr 24 min 45 sec) 
Heartbeat CPU 0 instructions: 80000000 cycles: 72495921 heartbeat IPC: 0.555717 cumulative IPC: 0.551745 (Simulation time: 0 hr 28 min 19 sec) 
Heartbeat CPU 0 instructions: 90000002 cycles: 96156692 heartbeat IPC: 0.422641 cumulative IPC: 0.512599 (Simulation time: 0 hr 29 min 45 sec) 
Heartbeat CPU 0 instructions: 100000003 cycles: 116614398 heartbeat IPC: 0.488813 cumulative IPC: 0.507658 (Simulation time: 0 hr 30 min 24 sec) 
Finished CPU 0 instructions: 50000002 cycles: 98491460 cumulative IPC: 0.507658 (Simulation time: 0 hr 30 min 24 sec) 

ChampSim completed all CPUs

Region of Interest Statistics

CPU 0 cumulative IPC: 0.507658 instructions: 50000002 cycles: 98491460
L1D TOTAL     ACCESS:   18420430  HIT:   16254850  MISS:    2165580
L1D LOAD      ACCESS:    7035356  HIT:    6277774  MISS:     757582
L1D RFO       ACCESS:    5554858  HIT:    4695399  MISS:     859459
L1D PREFETCH  ACCESS:    5830216  HIT:    5281677  MISS:     548539
L1D WRITEBACK ACCESS:          0  HIT:          0  MISS:          0
L1D PREFETCH  REQUESTED:    7073812  ISSUED:    6883004  USEFUL:     186168  USELESS:     362432
L1D AVERAGE MISS LATENCY: 174.92 cycles
L1I TOTAL     ACCESS:   19677987  HIT:   17319852  MISS:    2358135
L1I LOAD      ACCESS:    9831578  HIT:    9430536  MISS:     401042
L1I RFO       ACCESS:          0  HIT:          0  MISS:          0
L1I PREFETCH  ACCESS:    9846409  HIT:    7889316  MISS:    1957093
L1I WRITEBACK ACCESS:          0  HIT:          0  MISS:          0
L1I PREFETCH  REQUESTED:   11410340  ISSUED:   11410340  USEFUL:    1722782  USELESS:     234304
L1I AVERAGE MISS LATENCY: 14.6395 cycles
L2C TOTAL     ACCESS:    6547458  HIT:    4703398  MISS:    1844060
L2C LOAD      ACCESS:     578526  HIT:     249884  MISS:     328642
L2C RFO       ACCESS:     858736  HIT:      17422  MISS:     841314
L2C PREFETCH  ACCESS:    3987308  HIT:    3315594  MISS:     671714
L2C WRITEBACK ACCESS:    1122888  HIT:    1120498  MISS:       2390
L2C PREFETCH  REQUESTED:    2955364  ISSUED:    2954991  USEFUL:      24380  USELESS:     647970
L2C AVERAGE MISS LATENCY: 210.541 cycles
LLC TOTAL     ACCESS:    3759921  HIT:    2266694  MISS:    1493227
LLC LOAD      ACCESS:     328605  HIT:     171932  MISS:     156673
LLC RFO       ACCESS:     841313  HIT:     123392  MISS:     717921
LLC PREFETCH  ACCESS:    1527935  HIT:     911110  MISS:     616825
LLC WRITEBACK ACCESS:    1062068  HIT:    1060260  MISS:       1808
LLC PREFETCH  REQUESTED:          0  ISSUED:          0  USEFUL:      43908  USELESS:     572363
LLC AVERAGE MISS LATENCY: 262.336 cycles
Major fault: 0 Minor fault: 24700
CPU 0 L1D next line prefetcher final stats

DRAM Statistics
 CHANNEL 0
 RQ ROW_BUFFER_HIT:     360042  ROW_BUFFER_MISS:    1131200
 DBUS_CONGESTED:    1422259
 WQ ROW_BUFFER_HIT:     270257  ROW_BUFFER_MISS:     604333  FULL:          0

 AVG_CONGESTED_CYCLE: 6

CPU 0 Branch Prediction Accuracy: 99.2833% MPKI: 1.20568 Average ROB Occupancy at Mispredict: 181.154

Branch types
NOT_BRANCH: 41588350 83.1767%
BRANCH_DIRECT_JUMP: 464501 0.929002%
BRANCH_INDIRECT: 45704 0.091408%
BRANCH_CONDITIONAL: 6147408 12.2948%
BRANCH_DIRECT_CALL: 675450 1.3509%
BRANCH_INDIRECT_CALL: 201532 0.403064%
BRANCH_RETURN: 876985 1.75397%
BRANCH_OTHER: 0 0%

