Initialize SIGNATURE TABLE
ST_SET: 1
ST_WAY: 256
ST_TAG_BIT: 16
ST_TAG_MASK: ffff

Initialize PATTERN TABLE
PT_SET: 512
PT_WAY: 4
SIG_DELTA_BIT: 7
C_SIG_BIT: 4
C_DELTA_BIT: 4

Initialize PREFETCH FILTER
FILTER_SET: 1024

*** ChampSim Multicore Out-of-Order Simulator ***

Warmup Instructions: 50000000
Simulation Instructions: 50000000
Number of CPUs: 1
LLC sets: 2048
LLC ways: 16
Off-chip DRAM Size: 4096 MB Channels: 1 Width: 64-bit Data Rate: 3200 MT/s

CPU 0 runs /home/ykhodke/ChampSim/dpc3_traces/server_003.champsimtrace.xz
LHT KB: 63.12
SCC KB: 1.56
Total KB: 64.69
CPU 0 L1D next line prefetcher
Heartbeat CPU 0 instructions: 10000002 cycles: 3227542 heartbeat IPC: 3.09833 cumulative IPC: 3.09833 (Simulation time: 0 hr 3 min 27 sec) 
Heartbeat CPU 0 instructions: 20000000 cycles: 6548962 heartbeat IPC: 3.01076 cumulative IPC: 3.05392 (Simulation time: 0 hr 6 min 45 sec) 
Heartbeat CPU 0 instructions: 30000000 cycles: 9763370 heartbeat IPC: 3.11099 cumulative IPC: 3.07271 (Simulation time: 0 hr 9 min 55 sec) 
Heartbeat CPU 0 instructions: 40000001 cycles: 13181289 heartbeat IPC: 2.92576 cumulative IPC: 3.0346 (Simulation time: 0 hr 13 min 11 sec) 
Heartbeat CPU 0 instructions: 50000003 cycles: 16900366 heartbeat IPC: 2.68884 cumulative IPC: 2.95852 (Simulation time: 0 hr 16 min 9 sec) 

Warmup complete CPU 0 instructions: 50000003 cycles: 16900366 (Simulation time: 0 hr 16 min 9 sec) 

Heartbeat CPU 0 instructions: 60000000 cycles: 25930890 heartbeat IPC: 1.10736 cumulative IPC: 1.10736 (Simulation time: 0 hr 19 min 17 sec) 
Heartbeat CPU 0 instructions: 70000003 cycles: 35050920 heartbeat IPC: 1.09649 cumulative IPC: 1.10189 (Simulation time: 0 hr 21 min 50 sec) 
Heartbeat CPU 0 instructions: 80000000 cycles: 45876903 heartbeat IPC: 0.923703 cumulative IPC: 1.03532 (Simulation time: 0 hr 24 min 33 sec) 
Heartbeat CPU 0 instructions: 90000001 cycles: 56954961 heartbeat IPC: 0.902685 cumulative IPC: 0.998637 (Simulation time: 0 hr 27 min 3 sec) 
Heartbeat CPU 0 instructions: 100000001 cycles: 68563690 heartbeat IPC: 0.861421 cumulative IPC: 0.967804 (Simulation time: 0 hr 28 min 48 sec) 
Finished CPU 0 instructions: 50000002 cycles: 51663325 cumulative IPC: 0.967805 (Simulation time: 0 hr 28 min 48 sec) 

ChampSim completed all CPUs

Region of Interest Statistics

CPU 0 cumulative IPC: 0.967805 instructions: 50000002 cycles: 51663325
L1D TOTAL     ACCESS:   20054902  HIT:   18913897  MISS:    1141005
L1D LOAD      ACCESS:    7881043  HIT:    7351770  MISS:     529273
L1D RFO       ACCESS:    4554207  HIT:    4436726  MISS:     117481
L1D PREFETCH  ACCESS:    7619652  HIT:    7125401  MISS:     494251
L1D WRITEBACK ACCESS:          0  HIT:          0  MISS:          0
L1D PREFETCH  REQUESTED:    7942481  ISSUED:    7850142  USEFUL:     155946  USELESS:     338264
L1D AVERAGE MISS LATENCY: 57.6337 cycles
L1I TOTAL     ACCESS:   19162849  HIT:   17343085  MISS:    1819764
L1I LOAD      ACCESS:    9292805  HIT:    9005038  MISS:     287767
L1I RFO       ACCESS:          0  HIT:          0  MISS:          0
L1I PREFETCH  ACCESS:    9870044  HIT:    8338047  MISS:    1531997
L1I WRITEBACK ACCESS:          0  HIT:          0  MISS:          0
L1I PREFETCH  REQUESTED:   15102271  ISSUED:   15102271  USEFUL:     720671  USELESS:     811189
L1I AVERAGE MISS LATENCY: 32.5579 cycles
L2C TOTAL     ACCESS:    4040015  HIT:    2919326  MISS:    1120689
L2C LOAD      ACCESS:     573747  HIT:     310540  MISS:     263207
L2C RFO       ACCESS:     114688  HIT:      38785  MISS:      75903
L2C PREFETCH  ACCESS:    3067319  HIT:    2287495  MISS:     779824
L2C WRITEBACK ACCESS:     284261  HIT:     282506  MISS:       1755
L2C PREFETCH  REQUESTED:    2571556  ISSUED:    2568938  USEFUL:      32740  USELESS:     744654
L2C AVERAGE MISS LATENCY: 85.4188 cycles
LLC TOTAL     ACCESS:    1931778  HIT:    1488801  MISS:     442977
LLC LOAD      ACCESS:     263063  HIT:     186963  MISS:      76100
LLC RFO       ACCESS:      75901  HIT:      32170  MISS:      43731
LLC PREFETCH  ACCESS:    1421843  HIT:    1099747  MISS:     322096
LLC WRITEBACK ACCESS:     170971  HIT:     169921  MISS:       1050
LLC PREFETCH  REQUESTED:          0  ISSUED:          0  USEFUL:      27016  USELESS:     284297
LLC AVERAGE MISS LATENCY: 187.1 cycles
Major fault: 0 Minor fault: 7795
CPU 0 L1D next line prefetcher final stats

DRAM Statistics
 CHANNEL 0
 RQ ROW_BUFFER_HIT:     103361  ROW_BUFFER_MISS:     338501
 DBUS_CONGESTED:     224838
 WQ ROW_BUFFER_HIT:      23898  ROW_BUFFER_MISS:      82955  FULL:          0

 AVG_CONGESTED_CYCLE: 5

CPU 0 Branch Prediction Accuracy: 95.439% MPKI: 9.02702 Average ROB Occupancy at Mispredict: 65.4074

Branch types
NOT_BRANCH: 40104088 80.2082%
BRANCH_DIRECT_JUMP: 497928 0.995856%
BRANCH_INDIRECT: 130587 0.261174%
BRANCH_CONDITIONAL: 7219018 14.438%
BRANCH_DIRECT_CALL: 625807 1.25161%
BRANCH_INDIRECT_CALL: 389787 0.779574%
BRANCH_RETURN: 1032747 2.06549%
BRANCH_OTHER: 0 0%

