Initialize SIGNATURE TABLE
ST_SET: 1
ST_WAY: 256
ST_TAG_BIT: 16
ST_TAG_MASK: ffff

Initialize PATTERN TABLE
PT_SET: 512
PT_WAY: 4
SIG_DELTA_BIT: 7
C_SIG_BIT: 4
C_DELTA_BIT: 4

Initialize PREFETCH FILTER
FILTER_SET: 1024

*** ChampSim Multicore Out-of-Order Simulator ***

Warmup Instructions: 50000000
Simulation Instructions: 50000000
Number of CPUs: 1
LLC sets: 2048
LLC ways: 16
Off-chip DRAM Size: 4096 MB Channels: 1 Width: 64-bit Data Rate: 3200 MT/s

CPU 0 runs /home/ykhodke/ChampSim/dpc3_traces/server_030.champsimtrace.xz
LHT KB: 63.12
SCC KB: 1.56
Total KB: 64.69
CPU 0 L1D next line prefetcher
Heartbeat CPU 0 instructions: 10000003 cycles: 3511880 heartbeat IPC: 2.84748 cumulative IPC: 2.84748 (Simulation time: 0 hr 3 min 38 sec) 
Heartbeat CPU 0 instructions: 20000003 cycles: 7023649 heartbeat IPC: 2.84757 cumulative IPC: 2.84752 (Simulation time: 0 hr 6 min 47 sec) 
Heartbeat CPU 0 instructions: 30000000 cycles: 10534642 heartbeat IPC: 2.8482 cumulative IPC: 2.84775 (Simulation time: 0 hr 10 min 2 sec) 
Heartbeat CPU 0 instructions: 40000002 cycles: 14046278 heartbeat IPC: 2.84768 cumulative IPC: 2.84773 (Simulation time: 0 hr 13 min 28 sec) 
Heartbeat CPU 0 instructions: 50000002 cycles: 17560535 heartbeat IPC: 2.84555 cumulative IPC: 2.84729 (Simulation time: 0 hr 16 min 52 sec) 

Warmup complete CPU 0 instructions: 50000002 cycles: 17560535 (Simulation time: 0 hr 16 min 52 sec) 

Heartbeat CPU 0 instructions: 60000000 cycles: 24884252 heartbeat IPC: 1.36543 cumulative IPC: 1.36543 (Simulation time: 0 hr 20 min 23 sec) 
Heartbeat CPU 0 instructions: 70000000 cycles: 32255571 heartbeat IPC: 1.35661 cumulative IPC: 1.361 (Simulation time: 0 hr 23 min 50 sec) 
Heartbeat CPU 0 instructions: 80000001 cycles: 39566605 heartbeat IPC: 1.3678 cumulative IPC: 1.36326 (Simulation time: 0 hr 27 min 12 sec) 
*** Reached end of trace for Core: 0 Repeating trace: /home/ykhodke/ChampSim/dpc3_traces/server_030.champsimtrace.xz
Heartbeat CPU 0 instructions: 90000002 cycles: 46920715 heartbeat IPC: 1.35978 cumulative IPC: 1.36239 (Simulation time: 0 hr 29 min 17 sec) 
Heartbeat CPU 0 instructions: 100000002 cycles: 54212059 heartbeat IPC: 1.37149 cumulative IPC: 1.3642 (Simulation time: 0 hr 30 min 21 sec) 
Finished CPU 0 instructions: 50000000 cycles: 36651524 cumulative IPC: 1.3642 (Simulation time: 0 hr 30 min 21 sec) 

ChampSim completed all CPUs

Region of Interest Statistics

CPU 0 cumulative IPC: 1.3642 instructions: 50000000 cycles: 36651524
L1D TOTAL     ACCESS:   19414195  HIT:   17337687  MISS:    2076508
L1D LOAD      ACCESS:    6891380  HIT:    5837265  MISS:    1054115
L1D RFO       ACCESS:    6172292  HIT:    5886964  MISS:     285328
L1D PREFETCH  ACCESS:    6350523  HIT:    5613458  MISS:     737065
L1D WRITEBACK ACCESS:          0  HIT:          0  MISS:          0
L1D PREFETCH  REQUESTED:    6945353  ISSUED:    6820262  USEFUL:     181133  USELESS:     556025
L1D AVERAGE MISS LATENCY: 19.7677 cycles
L1I TOTAL     ACCESS:   24179109  HIT:   19125235  MISS:    5053874
L1I LOAD      ACCESS:    9587956  HIT:    8849672  MISS:     738284
L1I RFO       ACCESS:          0  HIT:          0  MISS:          0
L1I PREFETCH  ACCESS:   14591153  HIT:   10275563  MISS:    4315590
L1I WRITEBACK ACCESS:          0  HIT:          0  MISS:          0
L1I PREFETCH  REQUESTED:   19988252  ISSUED:   19988252  USEFUL:    2366354  USELESS:    1949249
L1I AVERAGE MISS LATENCY: 15.0858 cycles
L2C TOTAL     ACCESS:    9905305  HIT:    9039814  MISS:     865491
L2C LOAD      ACCESS:    1024697  HIT:     852748  MISS:     171949
L2C RFO       ACCESS:     283675  HIT:     210308  MISS:      73367
L2C PREFETCH  ACCESS:    7981349  HIT:    7367709  MISS:     613640
L2C WRITEBACK ACCESS:     615584  HIT:     609049  MISS:       6535
L2C PREFETCH  REQUESTED:    5934648  ISSUED:    5928241  USEFUL:      15807  USELESS:     597202
L2C AVERAGE MISS LATENCY: 33.5255 cycles
LLC TOTAL     ACCESS:    2229368  HIT:    2211428  MISS:      17940
LLC LOAD      ACCESS:     171761  HIT:     169039  MISS:       2722
LLC RFO       ACCESS:      73363  HIT:      71627  MISS:       1736
LLC PREFETCH  ACCESS:    1852265  HIT:    1838853  MISS:      13412
LLC WRITEBACK ACCESS:     131979  HIT:     131909  MISS:         70
LLC PREFETCH  REQUESTED:          0  ISSUED:          0  USEFUL:        827  USELESS:      11744
LLC AVERAGE MISS LATENCY: 144.79 cycles
Major fault: 0 Minor fault: 2055
CPU 0 L1D next line prefetcher final stats

DRAM Statistics
 CHANNEL 0
 RQ ROW_BUFFER_HIT:       5835  ROW_BUFFER_MISS:      12035
 DBUS_CONGESTED:       5817
 WQ ROW_BUFFER_HIT:        138  ROW_BUFFER_MISS:       2143  FULL:          0

 AVG_CONGESTED_CYCLE: 5

CPU 0 Branch Prediction Accuracy: 99.8445% MPKI: 0.29148 Average ROB Occupancy at Mispredict: 163.396

Branch types
NOT_BRANCH: 40628081 81.2562%
BRANCH_DIRECT_JUMP: 490941 0.981882%
BRANCH_INDIRECT: 175854 0.351708%
BRANCH_CONDITIONAL: 6321415 12.6428%
BRANCH_DIRECT_CALL: 1002072 2.00414%
BRANCH_INDIRECT_CALL: 189783 0.379566%
BRANCH_RETURN: 1191851 2.3837%
BRANCH_OTHER: 0 0%

