Initialize SIGNATURE TABLE
ST_SET: 1
ST_WAY: 256
ST_TAG_BIT: 16
ST_TAG_MASK: ffff

Initialize PATTERN TABLE
PT_SET: 512
PT_WAY: 4
SIG_DELTA_BIT: 7
C_SIG_BIT: 4
C_DELTA_BIT: 4

Initialize PREFETCH FILTER
FILTER_SET: 1024

*** ChampSim Multicore Out-of-Order Simulator ***

Warmup Instructions: 50000000
Simulation Instructions: 50000000
Number of CPUs: 1
LLC sets: 2048
LLC ways: 16
Off-chip DRAM Size: 4096 MB Channels: 1 Width: 64-bit Data Rate: 3200 MT/s

CPU 0 runs /home/ykhodke/ChampSim/dpc3_traces/server_036.champsimtrace.xz
LHT KB: 63.12
SCC KB: 1.56
Total KB: 64.69
CPU 0 L1D next line prefetcher
Heartbeat CPU 0 instructions: 10000000 cycles: 3459045 heartbeat IPC: 2.89097 cumulative IPC: 2.89097 (Simulation time: 0 hr 3 min 21 sec) 
Heartbeat CPU 0 instructions: 20000000 cycles: 6924839 heartbeat IPC: 2.88534 cumulative IPC: 2.88815 (Simulation time: 0 hr 6 min 40 sec) 
Heartbeat CPU 0 instructions: 30000003 cycles: 10433227 heartbeat IPC: 2.85031 cumulative IPC: 2.87543 (Simulation time: 0 hr 10 min 5 sec) 
Heartbeat CPU 0 instructions: 40000000 cycles: 13895745 heartbeat IPC: 2.88807 cumulative IPC: 2.87858 (Simulation time: 0 hr 13 min 45 sec) 
Heartbeat CPU 0 instructions: 50000002 cycles: 17357478 heartbeat IPC: 2.88873 cumulative IPC: 2.8806 (Simulation time: 0 hr 17 min 24 sec) 

Warmup complete CPU 0 instructions: 50000002 cycles: 17357478 (Simulation time: 0 hr 17 min 24 sec) 

Heartbeat CPU 0 instructions: 60000002 cycles: 23035619 heartbeat IPC: 1.76114 cumulative IPC: 1.76114 (Simulation time: 0 hr 20 min 22 sec) 
Heartbeat CPU 0 instructions: 70000001 cycles: 28662045 heartbeat IPC: 1.77733 cumulative IPC: 1.7692 (Simulation time: 0 hr 23 min 4 sec) 
Heartbeat CPU 0 instructions: 80000001 cycles: 34315566 heartbeat IPC: 1.76881 cumulative IPC: 1.76907 (Simulation time: 0 hr 25 min 49 sec) 
Heartbeat CPU 0 instructions: 90000002 cycles: 39943663 heartbeat IPC: 1.7768 cumulative IPC: 1.77099 (Simulation time: 0 hr 28 min 0 sec) 
Heartbeat CPU 0 instructions: 100000001 cycles: 45568000 heartbeat IPC: 1.77799 cumulative IPC: 1.77239 (Simulation time: 0 hr 29 min 23 sec) 
Finished CPU 0 instructions: 50000003 cycles: 28210523 cumulative IPC: 1.77239 (Simulation time: 0 hr 29 min 23 sec) 

ChampSim completed all CPUs

Region of Interest Statistics

CPU 0 cumulative IPC: 1.77239 instructions: 50000003 cycles: 28210523
L1D TOTAL     ACCESS:   20744519  HIT:   20684567  MISS:      59952
L1D LOAD      ACCESS:    6796889  HIT:    6762185  MISS:      34704
L1D RFO       ACCESS:    7347095  HIT:    7339898  MISS:       7197
L1D PREFETCH  ACCESS:    6600535  HIT:    6582484  MISS:      18051
L1D WRITEBACK ACCESS:          0  HIT:          0  MISS:          0
L1D PREFETCH  REQUESTED:    6797958  ISSUED:    6634563  USEFUL:       5462  USELESS:      12590
L1D AVERAGE MISS LATENCY: 17.9148 cycles
L1I TOTAL     ACCESS:   24485064  HIT:   20115007  MISS:    4370057
L1I LOAD      ACCESS:    8874770  HIT:    8511480  MISS:     363290
L1I RFO       ACCESS:          0  HIT:          0  MISS:          0
L1I PREFETCH  ACCESS:   15610294  HIT:   11603527  MISS:    4006767
L1I WRITEBACK ACCESS:          0  HIT:          0  MISS:          0
L1I PREFETCH  REQUESTED:   17516052  ISSUED:   17516052  USEFUL:    3343568  USELESS:     663172
L1I AVERAGE MISS LATENCY: 13.3389 cycles
L2C TOTAL     ACCESS:    5751946  HIT:    5749469  MISS:       2477
L2C LOAD      ACCESS:      94636  HIT:      94266  MISS:        370
L2C RFO       ACCESS:       7190  HIT:       7137  MISS:         53
L2C PREFETCH  ACCESS:    5634516  HIT:    5632490  MISS:       2026
L2C WRITEBACK ACCESS:      15604  HIT:      15576  MISS:         28
L2C PREFETCH  REQUESTED:    2542740  ISSUED:    2542736  USEFUL:        157  USELESS:       1319
L2C AVERAGE MISS LATENCY: 146.286 cycles
LLC TOTAL     ACCESS:     285352  HIT:     282521  MISS:       2831
LLC LOAD      ACCESS:        370  HIT:        111  MISS:        259
LLC RFO       ACCESS:         53  HIT:         13  MISS:         40
LLC PREFETCH  ACCESS:     283961  HIT:     281436  MISS:       2525
LLC WRITEBACK ACCESS:        968  HIT:        961  MISS:          7
LLC PREFETCH  REQUESTED:          0  ISSUED:          0  USEFUL:         34  USELESS:        734
LLC AVERAGE MISS LATENCY: 213.887 cycles
Major fault: 0 Minor fault: 1938
CPU 0 L1D next line prefetcher final stats

DRAM Statistics
 CHANNEL 0
 RQ ROW_BUFFER_HIT:        359  ROW_BUFFER_MISS:       2465
 DBUS_CONGESTED:       1289
 WQ ROW_BUFFER_HIT:        280  ROW_BUFFER_MISS:       1693  FULL:          0

 AVG_CONGESTED_CYCLE: 6

CPU 0 Branch Prediction Accuracy: 99.8717% MPKI: 0.21174 Average ROB Occupancy at Mispredict: 213.83

Branch types
NOT_BRANCH: 41748445 83.4969%
BRANCH_DIRECT_JUMP: 468564 0.937128%
BRANCH_INDIRECT: 0 0%
BRANCH_CONDITIONAL: 5599754 11.1995%
BRANCH_DIRECT_CALL: 885105 1.77021%
BRANCH_INDIRECT_CALL: 206338 0.412676%
BRANCH_RETURN: 1091468 2.18294%
BRANCH_OTHER: 0 0%

