Initialize SIGNATURE TABLE
ST_SET: 1
ST_WAY: 256
ST_TAG_BIT: 16
ST_TAG_MASK: ffff

Initialize PATTERN TABLE
PT_SET: 512
PT_WAY: 4
SIG_DELTA_BIT: 7
C_SIG_BIT: 4
C_DELTA_BIT: 4

Initialize PREFETCH FILTER
FILTER_SET: 1024

*** ChampSim Multicore Out-of-Order Simulator ***

Warmup Instructions: 50000000
Simulation Instructions: 50000000
Number of CPUs: 1
LLC sets: 2048
LLC ways: 16
Off-chip DRAM Size: 4096 MB Channels: 1 Width: 64-bit Data Rate: 3200 MT/s

CPU 0 runs /home/ykhodke/ChampSim/dpc3_traces/server_021.champsimtrace.xz
L1I D-JOLT instruction prefetcher has been constructed!
CPU 0 L1D next line prefetcher
Heartbeat CPU 0 instructions: 10000000 cycles: 3623140 heartbeat IPC: 2.76004 cumulative IPC: 2.76004 (Simulation time: 0 hr 3 min 45 sec) 
Heartbeat CPU 0 instructions: 20000000 cycles: 7240946 heartbeat IPC: 2.76411 cumulative IPC: 2.76207 (Simulation time: 0 hr 7 min 20 sec) 
Heartbeat CPU 0 instructions: 30000003 cycles: 10889570 heartbeat IPC: 2.74076 cumulative IPC: 2.75493 (Simulation time: 0 hr 10 min 15 sec) 
Heartbeat CPU 0 instructions: 40000001 cycles: 14502962 heartbeat IPC: 2.76748 cumulative IPC: 2.75806 (Simulation time: 0 hr 13 min 42 sec) 
Heartbeat CPU 0 instructions: 50000002 cycles: 18138664 heartbeat IPC: 2.7505 cumulative IPC: 2.75654 (Simulation time: 0 hr 16 min 40 sec) 

Warmup complete CPU 0 instructions: 50000002 cycles: 18138664 (Simulation time: 0 hr 16 min 40 sec) 

Heartbeat CPU 0 instructions: 60000001 cycles: 35005276 heartbeat IPC: 0.592887 cumulative IPC: 0.592887 (Simulation time: 0 hr 20 min 30 sec) 
Heartbeat CPU 0 instructions: 70000002 cycles: 52049246 heartbeat IPC: 0.586718 cumulative IPC: 0.589786 (Simulation time: 0 hr 24 min 16 sec) 
Heartbeat CPU 0 instructions: 80000001 cycles: 68813666 heartbeat IPC: 0.596501 cumulative IPC: 0.592008 (Simulation time: 0 hr 27 min 15 sec) 
Heartbeat CPU 0 instructions: 90000001 cycles: 85792063 heartbeat IPC: 0.588984 cumulative IPC: 0.591249 (Simulation time: 0 hr 28 min 38 sec) 
Heartbeat CPU 0 instructions: 100000002 cycles: 102678791 heartbeat IPC: 0.592181 cumulative IPC: 0.591435 (Simulation time: 0 hr 29 min 12 sec) 
Finished CPU 0 instructions: 50000000 cycles: 84540127 cumulative IPC: 0.591435 (Simulation time: 0 hr 29 min 12 sec) 

ChampSim completed all CPUs

Region of Interest Statistics

CPU 0 cumulative IPC: 0.591435 instructions: 50000000 cycles: 84540127
L1D TOTAL     ACCESS:   18706306  HIT:   16502840  MISS:    2203466
L1D LOAD      ACCESS:    7059405  HIT:    6355815  MISS:     703590
L1D RFO       ACCESS:    5882191  HIT:    4906595  MISS:     975596
L1D PREFETCH  ACCESS:    5764710  HIT:    5240430  MISS:     524280
L1D WRITEBACK ACCESS:          0  HIT:          0  MISS:          0
L1D PREFETCH  REQUESTED:    7102218  ISSUED:    6896493  USEFUL:     203027  USELESS:     321248
L1D AVERAGE MISS LATENCY: 181.631 cycles
L1I TOTAL     ACCESS:   17849916  HIT:   14433590  MISS:    3416326
L1I LOAD      ACCESS:   10144814  HIT:   10124363  MISS:      20451
L1I RFO       ACCESS:          0  HIT:          0  MISS:          0
L1I PREFETCH  ACCESS:    7705102  HIT:    4309227  MISS:    3395875
L1I WRITEBACK ACCESS:          0  HIT:          0  MISS:          0
L1I PREFETCH  REQUESTED:    8255148  ISSUED:    8182193  USEFUL:    2756628  USELESS:     639215
L1I AVERAGE MISS LATENCY: 17.3413 cycles
L2C TOTAL     ACCESS:    8217374  HIT:    6356348  MISS:    1861026
L2C LOAD      ACCESS:     485572  HIT:     236644  MISS:     248928
L2C RFO       ACCESS:     974998  HIT:      21938  MISS:     953060
L2C PREFETCH  ACCESS:    5576904  HIT:    4920973  MISS:     655931
L2C WRITEBACK ACCESS:    1179900  HIT:    1176793  MISS:       3107
L2C PREFETCH  REQUESTED:    4914044  ISSUED:    4907589  USEFUL:      19560  USELESS:     636384
L2C AVERAGE MISS LATENCY: 220.562 cycles
LLC TOTAL     ACCESS:    4224435  HIT:    2809930  MISS:    1414505
LLC LOAD      ACCESS:     248884  HIT:     168698  MISS:      80186
LLC RFO       ACCESS:     953056  HIT:     142510  MISS:     810546
LLC PREFETCH  ACCESS:    1909949  HIT:    1388170  MISS:     521779
LLC WRITEBACK ACCESS:    1112546  HIT:    1110552  MISS:       1994
LLC PREFETCH  REQUESTED:          0  ISSUED:          0  USEFUL:      30535  USELESS:     489905
LLC AVERAGE MISS LATENCY: 294.474 cycles
Major fault: 0 Minor fault: 22292
CPU 0 L1D next line prefetcher final stats

DRAM Statistics
 CHANNEL 0
 RQ ROW_BUFFER_HIT:     406863  ROW_BUFFER_MISS:    1005366
 DBUS_CONGESTED:    1453554
 WQ ROW_BUFFER_HIT:     258486  ROW_BUFFER_MISS:     643019  FULL:          0

 AVG_CONGESTED_CYCLE: 6

CPU 0 Branch Prediction Accuracy: 99.8303% MPKI: 0.27838 Average ROB Occupancy at Mispredict: 227.041

Branch types
NOT_BRANCH: 41798555 83.5971%
BRANCH_DIRECT_JUMP: 445215 0.89043%
BRANCH_INDIRECT: 50481 0.100962%
BRANCH_CONDITIONAL: 5868247 11.7365%
BRANCH_DIRECT_CALL: 758228 1.51646%
BRANCH_INDIRECT_CALL: 160494 0.320988%
BRANCH_RETURN: 918719 1.83744%
BRANCH_OTHER: 0 0%

