Initialize SIGNATURE TABLE
ST_SET: 1
ST_WAY: 256
ST_TAG_BIT: 16
ST_TAG_MASK: ffff

Initialize PATTERN TABLE
PT_SET: 512
PT_WAY: 4
SIG_DELTA_BIT: 7
C_SIG_BIT: 4
C_DELTA_BIT: 4

Initialize PREFETCH FILTER
FILTER_SET: 1024

*** ChampSim Multicore Out-of-Order Simulator ***

Warmup Instructions: 50000000
Simulation Instructions: 50000000
Number of CPUs: 1
LLC sets: 2048
LLC ways: 16
Off-chip DRAM Size: 4096 MB Channels: 1 Width: 64-bit Data Rate: 3200 MT/s

CPU 0 runs /home/ykhodke/ChampSim/dpc3_traces/server_036.champsimtrace.xz
LHT KB: 126.25
SCC KB: 1.56
Total KB: 127.81
CPU 0 L1D next line prefetcher
Heartbeat CPU 0 instructions: 10000000 cycles: 3459066 heartbeat IPC: 2.89095 cumulative IPC: 2.89095 (Simulation time: 0 hr 3 min 54 sec) 
Heartbeat CPU 0 instructions: 20000000 cycles: 6924858 heartbeat IPC: 2.88534 cumulative IPC: 2.88815 (Simulation time: 0 hr 7 min 26 sec) 
Heartbeat CPU 0 instructions: 30000003 cycles: 10433443 heartbeat IPC: 2.85015 cumulative IPC: 2.87537 (Simulation time: 0 hr 10 min 49 sec) 
Heartbeat CPU 0 instructions: 40000000 cycles: 13895952 heartbeat IPC: 2.88808 cumulative IPC: 2.87854 (Simulation time: 0 hr 13 min 52 sec) 
Heartbeat CPU 0 instructions: 50000002 cycles: 17357660 heartbeat IPC: 2.88875 cumulative IPC: 2.88057 (Simulation time: 0 hr 16 min 59 sec) 

Warmup complete CPU 0 instructions: 50000002 cycles: 17357660 (Simulation time: 0 hr 16 min 59 sec) 

Heartbeat CPU 0 instructions: 60000002 cycles: 23019699 heartbeat IPC: 1.76615 cumulative IPC: 1.76615 (Simulation time: 0 hr 19 min 48 sec) 
Heartbeat CPU 0 instructions: 70000001 cycles: 28643438 heartbeat IPC: 1.77818 cumulative IPC: 1.77214 (Simulation time: 0 hr 22 min 43 sec) 
Heartbeat CPU 0 instructions: 80000001 cycles: 34293920 heartbeat IPC: 1.76976 cumulative IPC: 1.77135 (Simulation time: 0 hr 25 min 10 sec) 
Heartbeat CPU 0 instructions: 90000002 cycles: 39920622 heartbeat IPC: 1.77724 cumulative IPC: 1.77282 (Simulation time: 0 hr 27 min 12 sec) 
Heartbeat CPU 0 instructions: 100000001 cycles: 45545249 heartbeat IPC: 1.7779 cumulative IPC: 1.77383 (Simulation time: 0 hr 28 min 32 sec) 
Finished CPU 0 instructions: 50000003 cycles: 28187590 cumulative IPC: 1.77383 (Simulation time: 0 hr 28 min 32 sec) 

ChampSim completed all CPUs

Region of Interest Statistics

CPU 0 cumulative IPC: 1.77383 instructions: 50000003 cycles: 28187590
L1D TOTAL     ACCESS:   20728459  HIT:   20668561  MISS:      59898
L1D LOAD      ACCESS:    6789299  HIT:    6754645  MISS:      34654
L1D RFO       ACCESS:    7347303  HIT:    7340116  MISS:       7187
L1D PREFETCH  ACCESS:    6591857  HIT:    6573800  MISS:      18057
L1D WRITEBACK ACCESS:          0  HIT:          0  MISS:          0
L1D PREFETCH  REQUESTED:    6790260  ISSUED:    6625824  USEFUL:       5459  USELESS:      12599
L1D AVERAGE MISS LATENCY: 17.9785 cycles
L1I TOTAL     ACCESS:   25530389  HIT:   20812903  MISS:    4717486
L1I LOAD      ACCESS:    8916344  HIT:    8577619  MISS:     338725
L1I RFO       ACCESS:          0  HIT:          0  MISS:          0
L1I PREFETCH  ACCESS:   16614045  HIT:   12235284  MISS:    4378761
L1I WRITEBACK ACCESS:          0  HIT:          0  MISS:          0
L1I PREFETCH  REQUESTED:   18536371  ISSUED:   18536371  USEFUL:    3439360  USELESS:     939418
L1I AVERAGE MISS LATENCY: 13.5155 cycles
L2C TOTAL     ACCESS:    6013696  HIT:    6011427  MISS:       2269
L2C LOAD      ACCESS:      97245  HIT:      96921  MISS:        324
L2C RFO       ACCESS:       7178  HIT:       7129  MISS:         49
L2C PREFETCH  ACCESS:    5893682  HIT:    5891804  MISS:       1878
L2C WRITEBACK ACCESS:      15591  HIT:      15573  MISS:         18
L2C PREFETCH  REQUESTED:    2786620  ISSUED:    2786611  USEFUL:        144  USELESS:       1211
L2C AVERAGE MISS LATENCY: 137.908 cycles
LLC TOTAL     ACCESS:     551310  HIT:     548599  MISS:       2711
LLC LOAD      ACCESS:        324  HIT:         97  MISS:        227
LLC RFO       ACCESS:         49  HIT:          9  MISS:         40
LLC PREFETCH  ACCESS:     550017  HIT:     547582  MISS:       2435
LLC WRITEBACK ACCESS:        920  HIT:        911  MISS:          9
LLC PREFETCH  REQUESTED:          0  ISSUED:          0  USEFUL:         26  USELESS:        658
LLC AVERAGE MISS LATENCY: 219.059 cycles
Major fault: 0 Minor fault: 1938
CPU 0 L1D next line prefetcher final stats

DRAM Statistics
 CHANNEL 0
 RQ ROW_BUFFER_HIT:        311  ROW_BUFFER_MISS:       2391
 DBUS_CONGESTED:       1087
 WQ ROW_BUFFER_HIT:        234  ROW_BUFFER_MISS:       1702  FULL:          0

 AVG_CONGESTED_CYCLE: 6

CPU 0 Branch Prediction Accuracy: 99.8717% MPKI: 0.21174 Average ROB Occupancy at Mispredict: 214.312

Branch types
NOT_BRANCH: 41748439 83.4969%
BRANCH_DIRECT_JUMP: 468564 0.937128%
BRANCH_INDIRECT: 0 0%
BRANCH_CONDITIONAL: 5599754 11.1995%
BRANCH_DIRECT_CALL: 885105 1.77021%
BRANCH_INDIRECT_CALL: 206338 0.412676%
BRANCH_RETURN: 1091468 2.18294%
BRANCH_OTHER: 0 0%

