Initialize SIGNATURE TABLE
ST_SET: 1
ST_WAY: 256
ST_TAG_BIT: 16
ST_TAG_MASK: ffff

Initialize PATTERN TABLE
PT_SET: 512
PT_WAY: 4
SIG_DELTA_BIT: 7
C_SIG_BIT: 4
C_DELTA_BIT: 4

Initialize PREFETCH FILTER
FILTER_SET: 1024

*** ChampSim Multicore Out-of-Order Simulator ***

Warmup Instructions: 50000000
Simulation Instructions: 50000000
Number of CPUs: 1
LLC sets: 2048
LLC ways: 16
Off-chip DRAM Size: 4096 MB Channels: 1 Width: 64-bit Data Rate: 3200 MT/s

CPU 0 runs /home/ykhodke/ChampSim/dpc3_traces/server_001.champsimtrace.xz
L1I D-JOLT instruction prefetcher has been constructed!
CPU 0 L1D next line prefetcher
Heartbeat CPU 0 instructions: 10000002 cycles: 3154830 heartbeat IPC: 3.16974 cumulative IPC: 3.16974 (Simulation time: 0 hr 2 min 32 sec) 
Heartbeat CPU 0 instructions: 20000000 cycles: 6368827 heartbeat IPC: 3.11139 cumulative IPC: 3.1403 (Simulation time: 0 hr 6 min 13 sec) 
Heartbeat CPU 0 instructions: 30000003 cycles: 9554234 heartbeat IPC: 3.13932 cumulative IPC: 3.13997 (Simulation time: 0 hr 9 min 18 sec) 
Heartbeat CPU 0 instructions: 40000002 cycles: 12761059 heartbeat IPC: 3.11835 cumulative IPC: 3.13454 (Simulation time: 0 hr 12 min 18 sec) 
Heartbeat CPU 0 instructions: 50000003 cycles: 15979517 heartbeat IPC: 3.10708 cumulative IPC: 3.12901 (Simulation time: 0 hr 14 min 59 sec) 

Warmup complete CPU 0 instructions: 50000003 cycles: 15979517 (Simulation time: 0 hr 14 min 59 sec) 

Heartbeat CPU 0 instructions: 60000000 cycles: 23055772 heartbeat IPC: 1.41318 cumulative IPC: 1.41318 (Simulation time: 0 hr 17 min 27 sec) 
Heartbeat CPU 0 instructions: 70000002 cycles: 29883674 heartbeat IPC: 1.46458 cumulative IPC: 1.43842 (Simulation time: 0 hr 19 min 58 sec) 
Heartbeat CPU 0 instructions: 80000002 cycles: 36668900 heartbeat IPC: 1.47379 cumulative IPC: 1.45002 (Simulation time: 0 hr 22 min 37 sec) 
Heartbeat CPU 0 instructions: 90000002 cycles: 43851467 heartbeat IPC: 1.39226 cumulative IPC: 1.43513 (Simulation time: 0 hr 25 min 7 sec) 
Heartbeat CPU 0 instructions: 100000003 cycles: 50570938 heartbeat IPC: 1.48821 cumulative IPC: 1.44545 (Simulation time: 0 hr 27 min 4 sec) 
Finished CPU 0 instructions: 50000000 cycles: 34591421 cumulative IPC: 1.44545 (Simulation time: 0 hr 27 min 4 sec) 

ChampSim completed all CPUs

Region of Interest Statistics

CPU 0 cumulative IPC: 1.44545 instructions: 50000000 cycles: 34591421
L1D TOTAL     ACCESS:   17601228  HIT:   17090127  MISS:     511101
L1D LOAD      ACCESS:    6437194  HIT:    6232085  MISS:     205109
L1D RFO       ACCESS:    5052583  HIT:    4969905  MISS:      82678
L1D PREFETCH  ACCESS:    6111451  HIT:    5888137  MISS:     223314
L1D WRITEBACK ACCESS:          0  HIT:          0  MISS:          0
L1D PREFETCH  REQUESTED:    6466307  ISSUED:    6288935  USEFUL:     131607  USELESS:      91835
L1D AVERAGE MISS LATENCY: 95.3734 cycles
L1I TOTAL     ACCESS:   15301288  HIT:   14343814  MISS:     957474
L1I LOAD      ACCESS:    8252608  HIT:    8220858  MISS:      31750
L1I RFO       ACCESS:          0  HIT:          0  MISS:          0
L1I PREFETCH  ACCESS:    7048680  HIT:    6122956  MISS:     925724
L1I WRITEBACK ACCESS:          0  HIT:          0  MISS:          0
L1I PREFETCH  REQUESTED:    7244148  ISSUED:    7172959  USEFUL:     704564  USELESS:     221087
L1I AVERAGE MISS LATENCY: 30.09 cycles
L2C TOTAL     ACCESS:    2256606  HIT:    1780208  MISS:     476398
L2C LOAD      ACCESS:     179567  HIT:      86033  MISS:      93534
L2C RFO       ACCESS:      80916  HIT:      10252  MISS:      70664
L2C PREFETCH  ACCESS:    1788258  HIT:    1476529  MISS:     311729
L2C WRITEBACK ACCESS:     207865  HIT:     207394  MISS:        471
L2C PREFETCH  REQUESTED:    2128860  ISSUED:    2125123  USEFUL:      21060  USELESS:     291036
L2C AVERAGE MISS LATENCY: 126.54 cycles
LLC TOTAL     ACCESS:    1231767  HIT:     895701  MISS:     336066
LLC LOAD      ACCESS:      93389  HIT:      62423  MISS:      30966
LLC RFO       ACCESS:      70663  HIT:       6782  MISS:      63881
LLC PREFETCH  ACCESS:     900001  HIT:     659075  MISS:     240926
LLC WRITEBACK ACCESS:     167714  HIT:     167421  MISS:        293
LLC PREFETCH  REQUESTED:          0  ISSUED:          0  USEFUL:      27157  USELESS:     210096
LLC AVERAGE MISS LATENCY: 230.274 cycles
Major fault: 0 Minor fault: 16708
CPU 0 L1D next line prefetcher final stats

DRAM Statistics
 CHANNEL 0
 RQ ROW_BUFFER_HIT:     102249  ROW_BUFFER_MISS:     233474
 DBUS_CONGESTED:     229693
 WQ ROW_BUFFER_HIT:      36026  ROW_BUFFER_MISS:     123163  FULL:          0

 AVG_CONGESTED_CYCLE: 6

CPU 0 Branch Prediction Accuracy: 99.5889% MPKI: 0.70108 Average ROB Occupancy at Mispredict: 114.984

Branch types
NOT_BRANCH: 41473571 82.9471%
BRANCH_DIRECT_JUMP: 347941 0.695882%
BRANCH_INDIRECT: 148212 0.296424%
BRANCH_CONDITIONAL: 6817276 13.6346%
BRANCH_DIRECT_CALL: 570724 1.14145%
BRANCH_INDIRECT_CALL: 25133 0.050266%
BRANCH_RETURN: 617123 1.23425%
BRANCH_OTHER: 0 0%

