Initialize SIGNATURE TABLE
ST_SET: 1
ST_WAY: 256
ST_TAG_BIT: 16
ST_TAG_MASK: ffff

Initialize PATTERN TABLE
PT_SET: 512
PT_WAY: 4
SIG_DELTA_BIT: 7
C_SIG_BIT: 4
C_DELTA_BIT: 4

Initialize PREFETCH FILTER
FILTER_SET: 1024

*** ChampSim Multicore Out-of-Order Simulator ***

Warmup Instructions: 50000000
Simulation Instructions: 50000000
Number of CPUs: 1
LLC sets: 2048
LLC ways: 16
Off-chip DRAM Size: 4096 MB Channels: 1 Width: 64-bit Data Rate: 3200 MT/s

CPU 0 runs /home/ykhodke/ChampSim/dpc3_traces/server_023.champsimtrace.xz
L1I D-JOLT instruction prefetcher has been constructed!
CPU 0 L1D next line prefetcher
Heartbeat CPU 0 instructions: 10000000 cycles: 3498562 heartbeat IPC: 2.85832 cumulative IPC: 2.85832 (Simulation time: 0 hr 3 min 34 sec) 
Heartbeat CPU 0 instructions: 20000000 cycles: 6996802 heartbeat IPC: 2.85858 cumulative IPC: 2.85845 (Simulation time: 0 hr 7 min 2 sec) 
Heartbeat CPU 0 instructions: 30000001 cycles: 10488712 heartbeat IPC: 2.86376 cumulative IPC: 2.86022 (Simulation time: 0 hr 10 min 48 sec) 
Heartbeat CPU 0 instructions: 40000003 cycles: 13986823 heartbeat IPC: 2.85869 cumulative IPC: 2.85983 (Simulation time: 0 hr 14 min 2 sec) 
Heartbeat CPU 0 instructions: 50000001 cycles: 17486059 heartbeat IPC: 2.85777 cumulative IPC: 2.85942 (Simulation time: 0 hr 17 min 24 sec) 

Warmup complete CPU 0 instructions: 50000001 cycles: 17486059 (Simulation time: 0 hr 17 min 24 sec) 

Heartbeat CPU 0 instructions: 60000002 cycles: 24214247 heartbeat IPC: 1.48628 cumulative IPC: 1.48628 (Simulation time: 0 hr 21 min 5 sec) 
Heartbeat CPU 0 instructions: 70000002 cycles: 31147421 heartbeat IPC: 1.44234 cumulative IPC: 1.46398 (Simulation time: 0 hr 24 min 20 sec) 
Heartbeat CPU 0 instructions: 80000000 cycles: 37997051 heartbeat IPC: 1.45993 cumulative IPC: 1.46263 (Simulation time: 0 hr 26 min 59 sec) 
Heartbeat CPU 0 instructions: 90000000 cycles: 44888997 heartbeat IPC: 1.45097 cumulative IPC: 1.4597 (Simulation time: 0 hr 28 min 57 sec) 
Heartbeat CPU 0 instructions: 100000001 cycles: 51716690 heartbeat IPC: 1.46462 cumulative IPC: 1.46068 (Simulation time: 0 hr 29 min 56 sec) 
Finished CPU 0 instructions: 50000000 cycles: 34230631 cumulative IPC: 1.46068 (Simulation time: 0 hr 29 min 56 sec) 

ChampSim completed all CPUs

Region of Interest Statistics

CPU 0 cumulative IPC: 1.46068 instructions: 50000000 cycles: 34230631
L1D TOTAL     ACCESS:   19335096  HIT:   17868331  MISS:    1466765
L1D LOAD      ACCESS:    6837212  HIT:    6176450  MISS:     660762
L1D RFO       ACCESS:    5982642  HIT:    5721447  MISS:     261195
L1D PREFETCH  ACCESS:    6515242  HIT:    5970434  MISS:     544808
L1D WRITEBACK ACCESS:          0  HIT:          0  MISS:          0
L1D PREFETCH  REQUESTED:    6888405  ISSUED:    6766819  USEFUL:     130223  USELESS:     414592
L1D AVERAGE MISS LATENCY: 24.8876 cycles
L1I TOTAL     ACCESS:   16433135  HIT:   13490185  MISS:    2942950
L1I LOAD      ACCESS:    9445149  HIT:    9400144  MISS:      45005
L1I RFO       ACCESS:          0  HIT:          0  MISS:          0
L1I PREFETCH  ACCESS:    6987986  HIT:    4090041  MISS:    2897945
L1I WRITEBACK ACCESS:          0  HIT:          0  MISS:          0
L1I PREFETCH  REQUESTED:    7439112  ISSUED:    7315062  USEFUL:    2410781  USELESS:     487180
L1I AVERAGE MISS LATENCY: 19.4728 cycles
L2C TOTAL     ACCESS:    6149214  HIT:    5378941  MISS:     770273
L2C LOAD      ACCESS:     642341  HIT:     510321  MISS:     132020
L2C RFO       ACCESS:     259413  HIT:     179237  MISS:      80176
L2C PREFETCH  ACCESS:    4748216  HIT:    4195337  MISS:     552879
L2C WRITEBACK ACCESS:     499244  HIT:     494046  MISS:       5198
L2C PREFETCH  REQUESTED:    4415219  ISSUED:    4408561  USEFUL:      12673  USELESS:     540303
L2C AVERAGE MISS LATENCY: 40.6489 cycles
LLC TOTAL     ACCESS:    2113653  HIT:    2064794  MISS:      48859
LLC LOAD      ACCESS:     131831  HIT:     125895  MISS:       5936
LLC RFO       ACCESS:      80173  HIT:      62248  MISS:      17925
LLC PREFETCH  ACCESS:    1761914  HIT:    1737154  MISS:      24760
LLC WRITEBACK ACCESS:     139735  HIT:     139497  MISS:        238
LLC PREFETCH  REQUESTED:          0  ISSUED:          0  USEFUL:       2216  USELESS:      22591
LLC AVERAGE MISS LATENCY: 185.467 cycles
Major fault: 0 Minor fault: 2774
CPU 0 L1D next line prefetcher final stats

DRAM Statistics
 CHANNEL 0
 RQ ROW_BUFFER_HIT:      14887  ROW_BUFFER_MISS:      33719
 DBUS_CONGESTED:      31638
 WQ ROW_BUFFER_HIT:       2346  ROW_BUFFER_MISS:      18936  FULL:          0

 AVG_CONGESTED_CYCLE: 6

CPU 0 Branch Prediction Accuracy: 99.6798% MPKI: 0.58608 Average ROB Occupancy at Mispredict: 147.694

Branch types
NOT_BRANCH: 40848362 81.6967%
BRANCH_DIRECT_JUMP: 548373 1.09675%
BRANCH_INDIRECT: 189802 0.379604%
BRANCH_CONDITIONAL: 6372773 12.7455%
BRANCH_DIRECT_CALL: 862207 1.72441%
BRANCH_INDIRECT_CALL: 158149 0.316298%
BRANCH_RETURN: 1020345 2.04069%
BRANCH_OTHER: 0 0%

