Initialize SIGNATURE TABLE
ST_SET: 1
ST_WAY: 256
ST_TAG_BIT: 16
ST_TAG_MASK: ffff

Initialize PATTERN TABLE
PT_SET: 512
PT_WAY: 4
SIG_DELTA_BIT: 7
C_SIG_BIT: 4
C_DELTA_BIT: 4

Initialize PREFETCH FILTER
FILTER_SET: 1024

*** ChampSim Multicore Out-of-Order Simulator ***

Warmup Instructions: 50000000
Simulation Instructions: 50000000
Number of CPUs: 1
LLC sets: 2048
LLC ways: 16
Off-chip DRAM Size: 4096 MB Channels: 1 Width: 64-bit Data Rate: 3200 MT/s

CPU 0 runs /home/ykhodke/ChampSim/dpc3_traces/server_039.champsimtrace.xz
L1I D-JOLT instruction prefetcher has been constructed!
CPU 0 L1D next line prefetcher
Heartbeat CPU 0 instructions: 10000003 cycles: 3451666 heartbeat IPC: 2.89715 cumulative IPC: 2.89715 (Simulation time: 0 hr 3 min 4 sec) 
Heartbeat CPU 0 instructions: 20000002 cycles: 6896321 heartbeat IPC: 2.90305 cumulative IPC: 2.9001 (Simulation time: 0 hr 6 min 32 sec) 
Heartbeat CPU 0 instructions: 30000001 cycles: 10342768 heartbeat IPC: 2.90154 cumulative IPC: 2.90058 (Simulation time: 0 hr 9 min 38 sec) 
Heartbeat CPU 0 instructions: 40000002 cycles: 13784625 heartbeat IPC: 2.90541 cumulative IPC: 2.90178 (Simulation time: 0 hr 13 min 19 sec) 
Heartbeat CPU 0 instructions: 50000001 cycles: 17225857 heartbeat IPC: 2.90594 cumulative IPC: 2.90261 (Simulation time: 0 hr 16 min 43 sec) 

Warmup complete CPU 0 instructions: 50000001 cycles: 17225857 (Simulation time: 0 hr 16 min 43 sec) 

Heartbeat CPU 0 instructions: 60000000 cycles: 23001973 heartbeat IPC: 1.73127 cumulative IPC: 1.73127 (Simulation time: 0 hr 20 min 25 sec) 
Heartbeat CPU 0 instructions: 70000000 cycles: 28775680 heartbeat IPC: 1.73199 cumulative IPC: 1.73163 (Simulation time: 0 hr 23 min 50 sec) 
Heartbeat CPU 0 instructions: 80000000 cycles: 34545137 heartbeat IPC: 1.73327 cumulative IPC: 1.73217 (Simulation time: 0 hr 26 min 40 sec) 
Heartbeat CPU 0 instructions: 90000001 cycles: 40319837 heartbeat IPC: 1.73169 cumulative IPC: 1.73205 (Simulation time: 0 hr 28 min 54 sec) 
Heartbeat CPU 0 instructions: 100000002 cycles: 46100861 heartbeat IPC: 1.7298 cumulative IPC: 1.7316 (Simulation time: 0 hr 29 min 53 sec) 
Finished CPU 0 instructions: 50000001 cycles: 28875004 cumulative IPC: 1.7316 (Simulation time: 0 hr 29 min 53 sec) 

ChampSim completed all CPUs

Region of Interest Statistics

CPU 0 cumulative IPC: 1.7316 instructions: 50000001 cycles: 28875004
L1D TOTAL     ACCESS:   19878456  HIT:   19383720  MISS:     494736
L1D LOAD      ACCESS:    6488057  HIT:    6266426  MISS:     221631
L1D RFO       ACCESS:    7089057  HIT:    7022130  MISS:      66927
L1D PREFETCH  ACCESS:    6301342  HIT:    6095164  MISS:     206178
L1D WRITEBACK ACCESS:          0  HIT:          0  MISS:          0
L1D PREFETCH  REQUESTED:    6503986  ISSUED:    6370399  USEFUL:      50044  USELESS:     156138
L1D AVERAGE MISS LATENCY: 15.08 cycles
L1I TOTAL     ACCESS:   19351976  HIT:   14145403  MISS:    5206573
L1I LOAD      ACCESS:    9294385  HIT:    9206575  MISS:      87810
L1I RFO       ACCESS:          0  HIT:          0  MISS:          0
L1I PREFETCH  ACCESS:   10057591  HIT:    4938828  MISS:    5118763
L1I WRITEBACK ACCESS:          0  HIT:          0  MISS:          0
L1I PREFETCH  REQUESTED:   10773047  ISSUED:   10441724  USEFUL:    4179473  USELESS:     939286
L1I AVERAGE MISS LATENCY: 14.5941 cycles
L2C TOTAL     ACCESS:    8055200  HIT:    8055110  MISS:         90
L2C LOAD      ACCESS:     291672  HIT:     291667  MISS:          5
L2C RFO       ACCESS:      66751  HIT:      66751  MISS:          0
L2C PREFETCH  ACCESS:    7516698  HIT:    7516616  MISS:         82
L2C WRITEBACK ACCESS:     180079  HIT:     180076  MISS:          3
L2C PREFETCH  REQUESTED:    5005208  ISSUED:    5000110  USEFUL:          1  USELESS:          6
L2C AVERAGE MISS LATENCY: 52.0667 cycles
LLC TOTAL     ACCESS:     776031  HIT:     775593  MISS:        438
LLC LOAD      ACCESS:          5  HIT:          4  MISS:          1
LLC RFO       ACCESS:          0  HIT:          0  MISS:          0
LLC PREFETCH  ACCESS:     776022  HIT:     775585  MISS:        437
LLC WRITEBACK ACCESS:          4  HIT:          4  MISS:          0
LLC PREFETCH  REQUESTED:          0  ISSUED:          0  USEFUL:          2  USELESS:          0
LLC AVERAGE MISS LATENCY: 168.495 cycles
Major fault: 0 Minor fault: 357
CPU 0 L1D next line prefetcher final stats

DRAM Statistics
 CHANNEL 0
 RQ ROW_BUFFER_HIT:         74  ROW_BUFFER_MISS:        364
 DBUS_CONGESTED:         54
 WQ ROW_BUFFER_HIT:          0  ROW_BUFFER_MISS:          0  FULL:          0

 AVG_CONGESTED_CYCLE: 6

CPU 0 Branch Prediction Accuracy: 99.9091% MPKI: 0.1547 Average ROB Occupancy at Mispredict: 305.479

Branch types
NOT_BRANCH: 41494970 82.9899%
BRANCH_DIRECT_JUMP: 491308 0.982616%
BRANCH_INDIRECT: 0 0%
BRANCH_CONDITIONAL: 5595255 11.1905%
BRANCH_DIRECT_CALL: 1028408 2.05682%
BRANCH_INDIRECT_CALL: 180756 0.361512%
BRANCH_RETURN: 1209170 2.41834%
BRANCH_OTHER: 0 0%

