Initialize SIGNATURE TABLE
ST_SET: 1
ST_WAY: 256
ST_TAG_BIT: 16
ST_TAG_MASK: ffff

Initialize PATTERN TABLE
PT_SET: 512
PT_WAY: 4
SIG_DELTA_BIT: 7
C_SIG_BIT: 4
C_DELTA_BIT: 4

Initialize PREFETCH FILTER
FILTER_SET: 1024

*** ChampSim Multicore Out-of-Order Simulator ***

Warmup Instructions: 50000000
Simulation Instructions: 50000000
Number of CPUs: 1
LLC sets: 2048
LLC ways: 16
Off-chip DRAM Size: 4096 MB Channels: 1 Width: 64-bit Data Rate: 3200 MT/s

CPU 0 runs /home/ykhodke/ChampSim/dpc3_traces/server_017.champsimtrace.xz
L1I D-JOLT instruction prefetcher has been constructed!
CPU 0 L1D next line prefetcher
Heartbeat CPU 0 instructions: 10000001 cycles: 3622645 heartbeat IPC: 2.76041 cumulative IPC: 2.76041 (Simulation time: 0 hr 3 min 30 sec) 
Heartbeat CPU 0 instructions: 20000000 cycles: 7243284 heartbeat IPC: 2.76194 cumulative IPC: 2.76118 (Simulation time: 0 hr 7 min 15 sec) 
Heartbeat CPU 0 instructions: 30000002 cycles: 10870608 heartbeat IPC: 2.75685 cumulative IPC: 2.75974 (Simulation time: 0 hr 10 min 33 sec) 
Heartbeat CPU 0 instructions: 40000000 cycles: 14493224 heartbeat IPC: 2.76044 cumulative IPC: 2.75991 (Simulation time: 0 hr 13 min 31 sec) 
Heartbeat CPU 0 instructions: 50000001 cycles: 18126781 heartbeat IPC: 2.75212 cumulative IPC: 2.75835 (Simulation time: 0 hr 16 min 24 sec) 

Warmup complete CPU 0 instructions: 50000001 cycles: 18126781 (Simulation time: 0 hr 16 min 24 sec) 

Heartbeat CPU 0 instructions: 60000002 cycles: 35569855 heartbeat IPC: 0.573294 cumulative IPC: 0.573294 (Simulation time: 0 hr 20 min 8 sec) 
Heartbeat CPU 0 instructions: 70000002 cycles: 53143961 heartbeat IPC: 0.569019 cumulative IPC: 0.571148 (Simulation time: 0 hr 23 min 52 sec) 
Heartbeat CPU 0 instructions: 80000000 cycles: 70468580 heartbeat IPC: 0.577213 cumulative IPC: 0.573156 (Simulation time: 0 hr 27 min 35 sec) 
Heartbeat CPU 0 instructions: 90000002 cycles: 93658417 heartbeat IPC: 0.431223 cumulative IPC: 0.529579 (Simulation time: 0 hr 29 min 33 sec) 
Heartbeat CPU 0 instructions: 100000003 cycles: 113554896 heartbeat IPC: 0.502602 cumulative IPC: 0.523955 (Simulation time: 0 hr 30 min 10 sec) 
Finished CPU 0 instructions: 50000002 cycles: 95428115 cumulative IPC: 0.523955 (Simulation time: 0 hr 30 min 10 sec) 

ChampSim completed all CPUs

Region of Interest Statistics

CPU 0 cumulative IPC: 0.523955 instructions: 50000002 cycles: 95428115
L1D TOTAL     ACCESS:   18371748  HIT:   16206319  MISS:    2165429
L1D LOAD      ACCESS:    7024447  HIT:    6280627  MISS:     743820
L1D RFO       ACCESS:    5514024  HIT:    4654814  MISS:     859210
L1D PREFETCH  ACCESS:    5833277  HIT:    5270878  MISS:     562399
L1D WRITEBACK ACCESS:          0  HIT:          0  MISS:          0
L1D PREFETCH  REQUESTED:    7061414  ISSUED:    6871775  USEFUL:     200138  USELESS:     362323
L1D AVERAGE MISS LATENCY: 177.13 cycles
L1I TOTAL     ACCESS:   17423972  HIT:   14371613  MISS:    3052359
L1I LOAD      ACCESS:    9905548  HIT:    9868754  MISS:      36794
L1I RFO       ACCESS:          0  HIT:          0  MISS:          0
L1I PREFETCH  ACCESS:    7518424  HIT:    4502859  MISS:    3015565
L1I WRITEBACK ACCESS:          0  HIT:          0  MISS:          0
L1I PREFETCH  REQUESTED:    8092721  ISSUED:    8053065  USEFUL:    2448422  USELESS:     567147
L1I AVERAGE MISS LATENCY: 18.1055 cycles
L2C TOTAL     ACCESS:    7671275  HIT:    5826076  MISS:    1845199
L2C LOAD      ACCESS:     571235  HIT:     241353  MISS:     329882
L2C RFO       ACCESS:     858704  HIT:      17841  MISS:     840863
L2C PREFETCH  ACCESS:    5118437  HIT:    4446104  MISS:     672333
L2C WRITEBACK ACCESS:    1122899  HIT:    1120778  MISS:       2121
L2C PREFETCH  REQUESTED:    4784259  ISSUED:    4778755  USEFUL:      21036  USELESS:     651988
L2C AVERAGE MISS LATENCY: 211.529 cycles
LLC TOTAL     ACCESS:    4238841  HIT:    2680708  MISS:    1558133
LLC LOAD      ACCESS:     329793  HIT:     173962  MISS:     155831
LLC RFO       ACCESS:     840861  HIT:     121958  MISS:     718903
LLC PREFETCH  ACCESS:    2006207  HIT:    1325084  MISS:     681123
LLC WRITEBACK ACCESS:    1061980  HIT:    1059704  MISS:       2276
LLC PREFETCH  REQUESTED:          0  ISSUED:          0  USEFUL:      48949  USELESS:     631041
LLC AVERAGE MISS LATENCY: 269.463 cycles
Major fault: 0 Minor fault: 24698
CPU 0 L1D next line prefetcher final stats

DRAM Statistics
 CHANNEL 0
 RQ ROW_BUFFER_HIT:     377046  ROW_BUFFER_MISS:    1178605
 DBUS_CONGESTED:    1501205
 WQ ROW_BUFFER_HIT:     245397  ROW_BUFFER_MISS:     633186  FULL:          0

 AVG_CONGESTED_CYCLE: 6

CPU 0 Branch Prediction Accuracy: 99.2833% MPKI: 1.20568 Average ROB Occupancy at Mispredict: 182.399

Branch types
NOT_BRANCH: 41588346 83.1767%
BRANCH_DIRECT_JUMP: 464501 0.929002%
BRANCH_INDIRECT: 45704 0.091408%
BRANCH_CONDITIONAL: 6147408 12.2948%
BRANCH_DIRECT_CALL: 675450 1.3509%
BRANCH_INDIRECT_CALL: 201532 0.403064%
BRANCH_RETURN: 876985 1.75397%
BRANCH_OTHER: 0 0%

