Initialize SIGNATURE TABLE
ST_SET: 1
ST_WAY: 256
ST_TAG_BIT: 16
ST_TAG_MASK: ffff

Initialize PATTERN TABLE
PT_SET: 512
PT_WAY: 4
SIG_DELTA_BIT: 7
C_SIG_BIT: 4
C_DELTA_BIT: 4

Initialize PREFETCH FILTER
FILTER_SET: 1024

*** ChampSim Multicore Out-of-Order Simulator ***

Warmup Instructions: 50000000
Simulation Instructions: 50000000
Number of CPUs: 1
LLC sets: 2048
LLC ways: 16
Off-chip DRAM Size: 4096 MB Channels: 1 Width: 64-bit Data Rate: 3200 MT/s

CPU 0 runs /home/ykhodke/ChampSim/dpc3_traces/server_002.champsimtrace.xz
LHT KB: 126.25
SCC KB: 1.56
Total KB: 127.81
CPU 0 L1D next line prefetcher
Heartbeat CPU 0 instructions: 10000000 cycles: 3581228 heartbeat IPC: 2.79234 cumulative IPC: 2.79234 (Simulation time: 0 hr 3 min 31 sec) 
Heartbeat CPU 0 instructions: 20000002 cycles: 7170584 heartbeat IPC: 2.78602 cumulative IPC: 2.78917 (Simulation time: 0 hr 6 min 40 sec) 
Heartbeat CPU 0 instructions: 30000000 cycles: 10711349 heartbeat IPC: 2.82425 cumulative IPC: 2.80077 (Simulation time: 0 hr 9 min 46 sec) 
Heartbeat CPU 0 instructions: 40000000 cycles: 14261594 heartbeat IPC: 2.81671 cumulative IPC: 2.80474 (Simulation time: 0 hr 12 min 54 sec) 
Heartbeat CPU 0 instructions: 50000001 cycles: 17809365 heartbeat IPC: 2.81867 cumulative IPC: 2.80751 (Simulation time: 0 hr 15 min 58 sec) 

Warmup complete CPU 0 instructions: 50000001 cycles: 17809365 (Simulation time: 0 hr 15 min 58 sec) 

Heartbeat CPU 0 instructions: 60000000 cycles: 24251482 heartbeat IPC: 1.55228 cumulative IPC: 1.55228 (Simulation time: 0 hr 19 min 7 sec) 
Heartbeat CPU 0 instructions: 70000003 cycles: 30690995 heartbeat IPC: 1.55291 cumulative IPC: 1.5526 (Simulation time: 0 hr 22 min 15 sec) 
Heartbeat CPU 0 instructions: 80000003 cycles: 37131291 heartbeat IPC: 1.55272 cumulative IPC: 1.55264 (Simulation time: 0 hr 25 min 35 sec) 
Heartbeat CPU 0 instructions: 90000002 cycles: 43570516 heartbeat IPC: 1.55298 cumulative IPC: 1.55273 (Simulation time: 0 hr 28 min 6 sec) 
Heartbeat CPU 0 instructions: 100000003 cycles: 50008035 heartbeat IPC: 1.55339 cumulative IPC: 1.55286 (Simulation time: 0 hr 30 min 1 sec) 
Finished CPU 0 instructions: 50000002 cycles: 32198670 cumulative IPC: 1.55286 (Simulation time: 0 hr 30 min 1 sec) 

ChampSim completed all CPUs

Region of Interest Statistics

CPU 0 cumulative IPC: 1.55286 instructions: 50000002 cycles: 32198670
L1D TOTAL     ACCESS:   21525157  HIT:   21524349  MISS:        808
L1D LOAD      ACCESS:    6602269  HIT:    6601892  MISS:        377
L1D RFO       ACCESS:    8432993  HIT:    8432881  MISS:        112
L1D PREFETCH  ACCESS:    6489895  HIT:    6489576  MISS:        319
L1D WRITEBACK ACCESS:          0  HIT:          0  MISS:          0
L1D PREFETCH  REQUESTED:    6602324  ISSUED:    6497284  USEFUL:         89  USELESS:        231
L1D AVERAGE MISS LATENCY: 35.2129 cycles
L1I TOTAL     ACCESS:   29372337  HIT:   28395525  MISS:     976812
L1I LOAD      ACCESS:    9828227  HIT:    9758433  MISS:      69794
L1I RFO       ACCESS:          0  HIT:          0  MISS:          0
L1I PREFETCH  ACCESS:   19544110  HIT:   18637092  MISS:     907018
L1I WRITEBACK ACCESS:          0  HIT:          0  MISS:          0
L1I PREFETCH  REQUESTED:   21366448  ISSUED:   21366448  USEFUL:     740937  USELESS:     166067
L1I AVERAGE MISS LATENCY: 13.0781 cycles
L2C TOTAL     ACCESS:    1110821  HIT:    1110529  MISS:        292
L2C LOAD      ACCESS:       3106  HIT:       3037  MISS:         69
L2C RFO       ACCESS:        112  HIT:        104  MISS:          8
L2C PREFETCH  ACCESS:    1107268  HIT:    1107053  MISS:        215
L2C WRITEBACK ACCESS:        335  HIT:        335  MISS:          0
L2C PREFETCH  REQUESTED:     247636  ISSUED:     247636  USEFUL:         51  USELESS:        140
L2C AVERAGE MISS LATENCY: 73.2911 cycles
LLC TOTAL     ACCESS:      85174  HIT:      84602  MISS:        572
LLC LOAD      ACCESS:         69  HIT:         54  MISS:         15
LLC RFO       ACCESS:          8  HIT:          6  MISS:          2
LLC PREFETCH  ACCESS:      85019  HIT:      84464  MISS:        555
LLC WRITEBACK ACCESS:         78  HIT:         78  MISS:          0
LLC PREFETCH  REQUESTED:          0  ISSUED:          0  USEFUL:          4  USELESS:        155
LLC AVERAGE MISS LATENCY: 216.348 cycles
Major fault: 0 Minor fault: 1879
CPU 0 L1D next line prefetcher final stats

DRAM Statistics
 CHANNEL 0
 RQ ROW_BUFFER_HIT:         47  ROW_BUFFER_MISS:        525
 DBUS_CONGESTED:        228
 WQ ROW_BUFFER_HIT:         53  ROW_BUFFER_MISS:        330  FULL:          0

 AVG_CONGESTED_CYCLE: 6

CPU 0 Branch Prediction Accuracy: 99.8789% MPKI: 0.20388 Average ROB Occupancy at Mispredict: 276.169

Branch types
NOT_BRANCH: 41580695 83.1614%
BRANCH_DIRECT_JUMP: 461630 0.92326%
BRANCH_INDIRECT: 0 0%
BRANCH_CONDITIONAL: 5376437 10.7529%
BRANCH_DIRECT_CALL: 1175775 2.35155%
BRANCH_INDIRECT_CALL: 114840 0.22968%
BRANCH_RETURN: 1290625 2.58125%
BRANCH_OTHER: 0 0%

