Initialize SIGNATURE TABLE
ST_SET: 1
ST_WAY: 256
ST_TAG_BIT: 16
ST_TAG_MASK: ffff

Initialize PATTERN TABLE
PT_SET: 512
PT_WAY: 4
SIG_DELTA_BIT: 7
C_SIG_BIT: 4
C_DELTA_BIT: 4

Initialize PREFETCH FILTER
FILTER_SET: 1024

*** ChampSim Multicore Out-of-Order Simulator ***

Warmup Instructions: 50000000
Simulation Instructions: 50000000
Number of CPUs: 1
LLC sets: 2048
LLC ways: 16
Off-chip DRAM Size: 4096 MB Channels: 1 Width: 64-bit Data Rate: 3200 MT/s

CPU 0 runs /home/ykhodke/ChampSim/dpc3_traces/server_036.champsimtrace.xz
LHT KB: 126.25
SCC KB: 1.56
Total KB: 127.81
CPU 0 L1D next line prefetcher
Heartbeat CPU 0 instructions: 10000000 cycles: 3459065 heartbeat IPC: 2.89095 cumulative IPC: 2.89095 (Simulation time: 0 hr 3 min 16 sec) 
Heartbeat CPU 0 instructions: 20000000 cycles: 6924862 heartbeat IPC: 2.88534 cumulative IPC: 2.88814 (Simulation time: 0 hr 6 min 34 sec) 
Heartbeat CPU 0 instructions: 30000003 cycles: 10433482 heartbeat IPC: 2.85012 cumulative IPC: 2.87536 (Simulation time: 0 hr 9 min 25 sec) 
Heartbeat CPU 0 instructions: 40000000 cycles: 13895996 heartbeat IPC: 2.88807 cumulative IPC: 2.87853 (Simulation time: 0 hr 13 min 3 sec) 
Heartbeat CPU 0 instructions: 50000002 cycles: 17357712 heartbeat IPC: 2.88874 cumulative IPC: 2.88056 (Simulation time: 0 hr 16 min 43 sec) 

Warmup complete CPU 0 instructions: 50000002 cycles: 17357712 (Simulation time: 0 hr 16 min 43 sec) 

Heartbeat CPU 0 instructions: 60000002 cycles: 23042359 heartbeat IPC: 1.75912 cumulative IPC: 1.75912 (Simulation time: 0 hr 20 min 13 sec) 
Heartbeat CPU 0 instructions: 70000001 cycles: 28688817 heartbeat IPC: 1.77102 cumulative IPC: 1.76505 (Simulation time: 0 hr 23 min 36 sec) 
Heartbeat CPU 0 instructions: 80000001 cycles: 34360097 heartbeat IPC: 1.76327 cumulative IPC: 1.76446 (Simulation time: 0 hr 26 min 18 sec) 
Heartbeat CPU 0 instructions: 90000002 cycles: 40007494 heartbeat IPC: 1.77073 cumulative IPC: 1.76602 (Simulation time: 0 hr 28 min 19 sec) 
Heartbeat CPU 0 instructions: 100000001 cycles: 45651992 heartbeat IPC: 1.77164 cumulative IPC: 1.76714 (Simulation time: 0 hr 29 min 39 sec) 
Finished CPU 0 instructions: 50000003 cycles: 28294281 cumulative IPC: 1.76714 (Simulation time: 0 hr 29 min 39 sec) 

ChampSim completed all CPUs

Region of Interest Statistics

CPU 0 cumulative IPC: 1.76714 instructions: 50000003 cycles: 28294281
L1D TOTAL     ACCESS:   20770246  HIT:   20710386  MISS:      59860
L1D LOAD      ACCESS:    6809611  HIT:    6774969  MISS:      34642
L1D RFO       ACCESS:    7347736  HIT:    7340550  MISS:       7186
L1D PREFETCH  ACCESS:    6612899  HIT:    6594867  MISS:      18032
L1D WRITEBACK ACCESS:          0  HIT:          0  MISS:          0
L1D PREFETCH  REQUESTED:    6810557  ISSUED:    6646527  USEFUL:       5465  USELESS:      12568
L1D AVERAGE MISS LATENCY: 17.7889 cycles
L1I TOTAL     ACCESS:   25251930  HIT:   20565121  MISS:    4686809
L1I LOAD      ACCESS:    8897499  HIT:    8528749  MISS:     368750
L1I RFO       ACCESS:          0  HIT:          0  MISS:          0
L1I PREFETCH  ACCESS:   16354431  HIT:   12036372  MISS:    4318059
L1I WRITEBACK ACCESS:          0  HIT:          0  MISS:          0
L1I PREFETCH  REQUESTED:   18410775  ISSUED:   18410775  USEFUL:    3416579  USELESS:     901447
L1I AVERAGE MISS LATENCY: 13.4386 cycles
L2C TOTAL     ACCESS:    5979463  HIT:    5977192  MISS:       2271
L2C LOAD      ACCESS:     109064  HIT:     108739  MISS:        325
L2C RFO       ACCESS:       7179  HIT:       7127  MISS:         52
L2C PREFETCH  ACCESS:    5847629  HIT:    5845748  MISS:       1881
L2C WRITEBACK ACCESS:      15591  HIT:      15578  MISS:         13
L2C PREFETCH  REQUESTED:    2791775  ISSUED:    2791771  USEFUL:        183  USELESS:       1098
L2C AVERAGE MISS LATENCY: 137.686 cycles
LLC TOTAL     ACCESS:     510992  HIT:     508233  MISS:       2759
LLC LOAD      ACCESS:        325  HIT:        105  MISS:        220
LLC RFO       ACCESS:         52  HIT:         10  MISS:         42
LLC PREFETCH  ACCESS:     509645  HIT:     507156  MISS:       2489
LLC WRITEBACK ACCESS:        970  HIT:        962  MISS:          8
LLC PREFETCH  REQUESTED:          0  ISSUED:          0  USEFUL:         36  USELESS:        702
LLC AVERAGE MISS LATENCY: 221.394 cycles
Major fault: 0 Minor fault: 1937
CPU 0 L1D next line prefetcher final stats

DRAM Statistics
 CHANNEL 0
 RQ ROW_BUFFER_HIT:        330  ROW_BUFFER_MISS:       2421
 DBUS_CONGESTED:       1084
 WQ ROW_BUFFER_HIT:        239  ROW_BUFFER_MISS:       1687  FULL:          0

 AVG_CONGESTED_CYCLE: 6

CPU 0 Branch Prediction Accuracy: 99.8717% MPKI: 0.21174 Average ROB Occupancy at Mispredict: 213.835

Branch types
NOT_BRANCH: 41748435 83.4969%
BRANCH_DIRECT_JUMP: 468563 0.937126%
BRANCH_INDIRECT: 0 0%
BRANCH_CONDITIONAL: 5599754 11.1995%
BRANCH_DIRECT_CALL: 885105 1.77021%
BRANCH_INDIRECT_CALL: 206338 0.412676%
BRANCH_RETURN: 1091467 2.18293%
BRANCH_OTHER: 0 0%

