Initialize SIGNATURE TABLE
ST_SET: 1
ST_WAY: 256
ST_TAG_BIT: 16
ST_TAG_MASK: ffff

Initialize PATTERN TABLE
PT_SET: 512
PT_WAY: 4
SIG_DELTA_BIT: 7
C_SIG_BIT: 4
C_DELTA_BIT: 4

Initialize PREFETCH FILTER
FILTER_SET: 1024

*** ChampSim Multicore Out-of-Order Simulator ***

Warmup Instructions: 50000000
Simulation Instructions: 50000000
Number of CPUs: 1
LLC sets: 2048
LLC ways: 16
Off-chip DRAM Size: 4096 MB Channels: 1 Width: 64-bit Data Rate: 3200 MT/s

CPU 0 runs /home/ykhodke/ChampSim/dpc3_traces/server_034.champsimtrace.xz
LHT KB: 63.12
SCC KB: 1.56
Total KB: 64.69
CPU 0 L1D next line prefetcher
Heartbeat CPU 0 instructions: 10000000 cycles: 3330032 heartbeat IPC: 3.00297 cumulative IPC: 3.00297 (Simulation time: 0 hr 3 min 20 sec) 
Heartbeat CPU 0 instructions: 20000002 cycles: 6653058 heartbeat IPC: 3.00931 cumulative IPC: 3.00614 (Simulation time: 0 hr 6 min 48 sec) 
Heartbeat CPU 0 instructions: 30000003 cycles: 9984424 heartbeat IPC: 3.00177 cumulative IPC: 3.00468 (Simulation time: 0 hr 10 min 13 sec) 
Heartbeat CPU 0 instructions: 40000001 cycles: 13313794 heartbeat IPC: 3.00357 cumulative IPC: 3.0044 (Simulation time: 0 hr 13 min 39 sec) 
Heartbeat CPU 0 instructions: 50000000 cycles: 16641963 heartbeat IPC: 3.00465 cumulative IPC: 3.00445 (Simulation time: 0 hr 17 min 3 sec) 

Warmup complete CPU 0 instructions: 50000002 cycles: 16641964 (Simulation time: 0 hr 17 min 3 sec) 

Heartbeat CPU 0 instructions: 60000002 cycles: 22624632 heartbeat IPC: 1.6715 cumulative IPC: 1.6715 (Simulation time: 0 hr 20 min 36 sec) 
Heartbeat CPU 0 instructions: 70000003 cycles: 28910527 heartbeat IPC: 1.59086 cumulative IPC: 1.63018 (Simulation time: 0 hr 24 min 2 sec) 
Heartbeat CPU 0 instructions: 80000002 cycles: 34984385 heartbeat IPC: 1.6464 cumulative IPC: 1.63555 (Simulation time: 0 hr 27 min 0 sec) 
Heartbeat CPU 0 instructions: 90000002 cycles: 41053567 heartbeat IPC: 1.64767 cumulative IPC: 1.63857 (Simulation time: 0 hr 29 min 1 sec) 
Heartbeat CPU 0 instructions: 100000002 cycles: 47071414 heartbeat IPC: 1.66172 cumulative IPC: 1.64315 (Simulation time: 0 hr 29 min 58 sec) 
Finished CPU 0 instructions: 50000000 cycles: 30429450 cumulative IPC: 1.64315 (Simulation time: 0 hr 29 min 58 sec) 

ChampSim completed all CPUs

Region of Interest Statistics

CPU 0 cumulative IPC: 1.64315 instructions: 50000000 cycles: 30429450
L1D TOTAL     ACCESS:   18332300  HIT:   16908109  MISS:    1424191
L1D LOAD      ACCESS:    6175069  HIT:    5519453  MISS:     655616
L1D RFO       ACCESS:    6163725  HIT:    6020952  MISS:     142773
L1D PREFETCH  ACCESS:    5993506  HIT:    5367704  MISS:     625802
L1D WRITEBACK ACCESS:          0  HIT:          0  MISS:          0
L1D PREFETCH  REQUESTED:    6209771  ISSUED:    6121795  USEFUL:     141303  USELESS:     484468
L1D AVERAGE MISS LATENCY: 17.4181 cycles
L1I TOTAL     ACCESS:   25272398  HIT:   19918845  MISS:    5353553
L1I LOAD      ACCESS:    9591226  HIT:    9114168  MISS:     477058
L1I RFO       ACCESS:          0  HIT:          0  MISS:          0
L1I PREFETCH  ACCESS:   15681172  HIT:   10804677  MISS:    4876495
L1I WRITEBACK ACCESS:          0  HIT:          0  MISS:          0
L1I PREFETCH  REQUESTED:   17993415  ISSUED:   17993415  USEFUL:    3007565  USELESS:    1868893
L1I AVERAGE MISS LATENCY: 13.6075 cycles
L2C TOTAL     ACCESS:    9019641  HIT:    8917492  MISS:     102149
L2C LOAD      ACCESS:     735831  HIT:     698149  MISS:      37682
L2C RFO       ACCESS:     140944  HIT:     132977  MISS:       7967
L2C PREFETCH  ACCESS:    7792165  HIT:    7736850  MISS:      55315
L2C WRITEBACK ACCESS:     350701  HIT:     349516  MISS:       1185
L2C PREFETCH  REQUESTED:    5251182  ISSUED:    5248597  USEFUL:       3025  USELESS:      51254
L2C AVERAGE MISS LATENCY: 37.6464 cycles
LLC TOTAL     ACCESS:    1474757  HIT:    1464697  MISS:      10060
LLC LOAD      ACCESS:      37608  HIT:      35556  MISS:       2052
LLC RFO       ACCESS:       7967  HIT:       7773  MISS:        194
LLC PREFETCH  ACCESS:    1393781  HIT:    1385997  MISS:       7784
LLC WRITEBACK ACCESS:      35401  HIT:      35371  MISS:         30
LLC PREFETCH  REQUESTED:          0  ISSUED:          0  USEFUL:       2698  USELESS:       3089
LLC AVERAGE MISS LATENCY: 140.567 cycles
Major fault: 0 Minor fault: 1182
CPU 0 L1D next line prefetcher final stats

DRAM Statistics
 CHANNEL 0
 RQ ROW_BUFFER_HIT:       3753  ROW_BUFFER_MISS:       6268
 DBUS_CONGESTED:       4201
 WQ ROW_BUFFER_HIT:        513  ROW_BUFFER_MISS:       1761  FULL:          0

 AVG_CONGESTED_CYCLE: 5

CPU 0 Branch Prediction Accuracy: 99.926% MPKI: 0.14472 Average ROB Occupancy at Mispredict: 228.869

Branch types
NOT_BRANCH: 40220971 80.4419%
BRANCH_DIRECT_JUMP: 771319 1.54264%
BRANCH_INDIRECT: 108663 0.217326%
BRANCH_CONDITIONAL: 6375035 12.7501%
BRANCH_DIRECT_CALL: 1049634 2.09927%
BRANCH_INDIRECT_CALL: 212281 0.424562%
BRANCH_RETURN: 1261924 2.52385%
BRANCH_OTHER: 0 0%

