Initialize SIGNATURE TABLE
ST_SET: 1
ST_WAY: 256
ST_TAG_BIT: 16
ST_TAG_MASK: ffff

Initialize PATTERN TABLE
PT_SET: 512
PT_WAY: 4
SIG_DELTA_BIT: 7
C_SIG_BIT: 4
C_DELTA_BIT: 4

Initialize PREFETCH FILTER
FILTER_SET: 1024

*** ChampSim Multicore Out-of-Order Simulator ***

Warmup Instructions: 50000000
Simulation Instructions: 50000000
Number of CPUs: 1
LLC sets: 2048
LLC ways: 16
Off-chip DRAM Size: 4096 MB Channels: 1 Width: 64-bit Data Rate: 3200 MT/s

CPU 0 runs /home/ykhodke/ChampSim/dpc3_traces/server_035.champsimtrace.xz
L1I D-JOLT instruction prefetcher has been constructed!
CPU 0 L1D next line prefetcher
Heartbeat CPU 0 instructions: 10000001 cycles: 3339256 heartbeat IPC: 2.99468 cumulative IPC: 2.99468 (Simulation time: 0 hr 3 min 0 sec) 
Heartbeat CPU 0 instructions: 20000000 cycles: 6677799 heartbeat IPC: 2.99532 cumulative IPC: 2.995 (Simulation time: 0 hr 6 min 5 sec) 
Heartbeat CPU 0 instructions: 30000000 cycles: 10013404 heartbeat IPC: 2.99796 cumulative IPC: 2.99598 (Simulation time: 0 hr 9 min 12 sec) 
Heartbeat CPU 0 instructions: 40000000 cycles: 13353340 heartbeat IPC: 2.99407 cumulative IPC: 2.99551 (Simulation time: 0 hr 12 min 26 sec) 
Heartbeat CPU 0 instructions: 50000003 cycles: 16690694 heartbeat IPC: 2.99639 cumulative IPC: 2.99568 (Simulation time: 0 hr 15 min 39 sec) 

Warmup complete CPU 0 instructions: 50000003 cycles: 16690694 (Simulation time: 0 hr 15 min 39 sec) 

Heartbeat CPU 0 instructions: 60000001 cycles: 25235921 heartbeat IPC: 1.17024 cumulative IPC: 1.17024 (Simulation time: 0 hr 19 min 4 sec) 
Heartbeat CPU 0 instructions: 70000003 cycles: 33387114 heartbeat IPC: 1.22681 cumulative IPC: 1.19786 (Simulation time: 0 hr 22 min 15 sec) 
Heartbeat CPU 0 instructions: 80000000 cycles: 41697955 heartbeat IPC: 1.20325 cumulative IPC: 1.19965 (Simulation time: 0 hr 25 min 12 sec) 
Heartbeat CPU 0 instructions: 90000002 cycles: 49341450 heartbeat IPC: 1.3083 cumulative IPC: 1.22509 (Simulation time: 0 hr 27 min 55 sec) 
Heartbeat CPU 0 instructions: 100000002 cycles: 57649558 heartbeat IPC: 1.20364 cumulative IPC: 1.22074 (Simulation time: 0 hr 29 min 39 sec) 
Finished CPU 0 instructions: 50000003 cycles: 40958865 cumulative IPC: 1.22074 (Simulation time: 0 hr 29 min 39 sec) 

ChampSim completed all CPUs

Region of Interest Statistics

CPU 0 cumulative IPC: 1.22074 instructions: 50000003 cycles: 40958865
L1D TOTAL     ACCESS:   18198311  HIT:   16693988  MISS:    1504323
L1D LOAD      ACCESS:    6128759  HIT:    5426905  MISS:     701854
L1D RFO       ACCESS:    6155085  HIT:    6002874  MISS:     152211
L1D PREFETCH  ACCESS:    5914467  HIT:    5264209  MISS:     650258
L1D WRITEBACK ACCESS:          0  HIT:          0  MISS:          0
L1D PREFETCH  REQUESTED:    6173038  ISSUED:    6072249  USEFUL:     138519  USELESS:     511744
L1D AVERAGE MISS LATENCY: 44.0943 cycles
L1I TOTAL     ACCESS:   19788847  HIT:   15753153  MISS:    4035694
L1I LOAD      ACCESS:    9715368  HIT:    9672735  MISS:      42633
L1I RFO       ACCESS:          0  HIT:          0  MISS:          0
L1I PREFETCH  ACCESS:   10073479  HIT:    6080418  MISS:    3993061
L1I WRITEBACK ACCESS:          0  HIT:          0  MISS:          0
L1I PREFETCH  REQUESTED:   10966830  ISSUED:   10717503  USEFUL:    3356999  USELESS:     636029
L1I AVERAGE MISS LATENCY: 16.2465 cycles
L2C TOTAL     ACCESS:    7491380  HIT:    7138218  MISS:     353162
L2C LOAD      ACCESS:     724836  HIT:     592438  MISS:     132398
L2C RFO       ACCESS:     150344  HIT:     129594  MISS:      20750
L2C PREFETCH  ACCESS:    6251030  HIT:    6053272  MISS:     197758
L2C WRITEBACK ACCESS:     365170  HIT:     362914  MISS:       2256
L2C PREFETCH  REQUESTED:    5881449  ISSUED:    5871983  USEFUL:      13160  USELESS:     184587
L2C AVERAGE MISS LATENCY: 142.788 cycles
LLC TOTAL     ACCESS:    2047581  HIT:    1765071  MISS:     282510
LLC LOAD      ACCESS:     132022  HIT:      48372  MISS:      83650
LLC RFO       ACCESS:      20715  HIT:       9542  MISS:      11173
LLC PREFETCH  ACCESS:    1791006  HIT:    1604358  MISS:     186648
LLC WRITEBACK ACCESS:     103838  HIT:     102799  MISS:       1039
LLC PREFETCH  REQUESTED:          0  ISSUED:          0  USEFUL:      30446  USELESS:     155319
LLC AVERAGE MISS LATENCY: 217.907 cycles
Major fault: 0 Minor fault: 5549
CPU 0 L1D next line prefetcher final stats

DRAM Statistics
 CHANNEL 0
 RQ ROW_BUFFER_HIT:      70664  ROW_BUFFER_MISS:     210800
 DBUS_CONGESTED:     161198
 WQ ROW_BUFFER_HIT:      18645  ROW_BUFFER_MISS:      72441  FULL:          0

 AVG_CONGESTED_CYCLE: 5

CPU 0 Branch Prediction Accuracy: 99.9115% MPKI: 0.17232 Average ROB Occupancy at Mispredict: 219.334

Branch types
NOT_BRANCH: 40267412 80.5348%
BRANCH_DIRECT_JUMP: 771900 1.5438%
BRANCH_INDIRECT: 108179 0.216358%
BRANCH_CONDITIONAL: 6307188 12.6144%
BRANCH_DIRECT_CALL: 1060898 2.1218%
BRANCH_INDIRECT_CALL: 211720 0.42344%
BRANCH_RETURN: 1272639 2.54528%
BRANCH_OTHER: 0 0%

