Initialize SIGNATURE TABLE
ST_SET: 1
ST_WAY: 256
ST_TAG_BIT: 16
ST_TAG_MASK: ffff

Initialize PATTERN TABLE
PT_SET: 512
PT_WAY: 4
SIG_DELTA_BIT: 7
C_SIG_BIT: 4
C_DELTA_BIT: 4

Initialize PREFETCH FILTER
FILTER_SET: 1024

*** ChampSim Multicore Out-of-Order Simulator ***

Warmup Instructions: 50000000
Simulation Instructions: 50000000
Number of CPUs: 1
LLC sets: 2048
LLC ways: 16
Off-chip DRAM Size: 4096 MB Channels: 1 Width: 64-bit Data Rate: 3200 MT/s

CPU 0 runs /home/ykhodke/ChampSim/dpc3_traces/server_016.champsimtrace.xz
LHT KB: 63.12
SCC KB: 1.56
Total KB: 64.69
CPU 0 L1D next line prefetcher
Heartbeat CPU 0 instructions: 10000000 cycles: 3500683 heartbeat IPC: 2.85659 cumulative IPC: 2.85659 (Simulation time: 0 hr 3 min 11 sec) 
Heartbeat CPU 0 instructions: 20000000 cycles: 7001821 heartbeat IPC: 2.85621 cumulative IPC: 2.8564 (Simulation time: 0 hr 6 min 32 sec) 
Heartbeat CPU 0 instructions: 30000001 cycles: 10498820 heartbeat IPC: 2.8596 cumulative IPC: 2.85746 (Simulation time: 0 hr 9 min 34 sec) 
Heartbeat CPU 0 instructions: 40000000 cycles: 13798008 heartbeat IPC: 3.03105 cumulative IPC: 2.89897 (Simulation time: 0 hr 11 min 11 sec) 
Heartbeat CPU 0 instructions: 50000002 cycles: 17033473 heartbeat IPC: 3.09075 cumulative IPC: 2.9354 (Simulation time: 0 hr 12 min 14 sec) 

Warmup complete CPU 0 instructions: 50000002 cycles: 17033473 (Simulation time: 0 hr 12 min 14 sec) 

Heartbeat CPU 0 instructions: 60000001 cycles: 25038975 heartbeat IPC: 1.24914 cumulative IPC: 1.24914 (Simulation time: 0 hr 13 min 32 sec) 
Heartbeat CPU 0 instructions: 70000001 cycles: 32248991 heartbeat IPC: 1.38696 cumulative IPC: 1.31445 (Simulation time: 0 hr 16 min 42 sec) 
Heartbeat CPU 0 instructions: 80000000 cycles: 39591010 heartbeat IPC: 1.36202 cumulative IPC: 1.32993 (Simulation time: 0 hr 19 min 55 sec) 
Heartbeat CPU 0 instructions: 90000000 cycles: 46689016 heartbeat IPC: 1.40885 cumulative IPC: 1.34882 (Simulation time: 0 hr 22 min 58 sec) 
Heartbeat CPU 0 instructions: 100000000 cycles: 53920056 heartbeat IPC: 1.38293 cumulative IPC: 1.35551 (Simulation time: 0 hr 26 min 27 sec) 
Finished CPU 0 instructions: 50000001 cycles: 36886584 cumulative IPC: 1.35551 (Simulation time: 0 hr 26 min 27 sec) 

ChampSim completed all CPUs

Region of Interest Statistics

CPU 0 cumulative IPC: 1.35551 instructions: 50000001 cycles: 36886584
L1D TOTAL     ACCESS:   18228448  HIT:   16960745  MISS:    1267703
L1D LOAD      ACCESS:    6655853  HIT:    6082372  MISS:     573481
L1D RFO       ACCESS:    5195039  HIT:    4972587  MISS:     222452
L1D PREFETCH  ACCESS:    6377556  HIT:    5905786  MISS:     471770
L1D WRITEBACK ACCESS:          0  HIT:          0  MISS:          0
L1D PREFETCH  REQUESTED:    6700865  ISSUED:    6599194  USEFUL:     112718  USELESS:     359071
L1D AVERAGE MISS LATENCY: 25.2512 cycles
L1I TOTAL     ACCESS:   21619836  HIT:   17630957  MISS:    3988879
L1I LOAD      ACCESS:    9729459  HIT:    9117516  MISS:     611943
L1I RFO       ACCESS:          0  HIT:          0  MISS:          0
L1I PREFETCH  ACCESS:   11890377  HIT:    8513441  MISS:    3376936
L1I WRITEBACK ACCESS:          0  HIT:          0  MISS:          0
L1I PREFETCH  REQUESTED:   17017507  ISSUED:   17017507  USEFUL:    1621287  USELESS:    1755581
L1I AVERAGE MISS LATENCY: 15.5834 cycles
L2C TOTAL     ACCESS:    7277637  HIT:    6492831  MISS:     784806
L2C LOAD      ACCESS:     643622  HIT:     495950  MISS:     147672
L2C RFO       ACCESS:     220460  HIT:     139080  MISS:      81380
L2C PREFETCH  ACCESS:    5985286  HIT:    5437248  MISS:     548038
L2C WRITEBACK ACCESS:     428269  HIT:     420553  MISS:       7716
L2C PREFETCH  REQUESTED:    4432236  ISSUED:    4427803  USEFUL:      25777  USELESS:     521430
L2C AVERAGE MISS LATENCY: 38.3581 cycles
LLC TOTAL     ACCESS:    1924522  HIT:    1886822  MISS:      37700
LLC LOAD      ACCESS:     147580  HIT:     143283  MISS:       4297
LLC RFO       ACCESS:      81372  HIT:      67795  MISS:      13577
LLC PREFETCH  ACCESS:    1552622  HIT:    1532913  MISS:      19709
LLC WRITEBACK ACCESS:     142948  HIT:     142831  MISS:        117
LLC PREFETCH  REQUESTED:          0  ISSUED:          0  USEFUL:       1687  USELESS:      17734
LLC AVERAGE MISS LATENCY: 177.982 cycles
Major fault: 0 Minor fault: 2384
CPU 0 L1D next line prefetcher final stats

DRAM Statistics
 CHANNEL 0
 RQ ROW_BUFFER_HIT:      11655  ROW_BUFFER_MISS:      25925
 DBUS_CONGESTED:      23900
 WQ ROW_BUFFER_HIT:       1666  ROW_BUFFER_MISS:      14890  FULL:          0

 AVG_CONGESTED_CYCLE: 6

CPU 0 Branch Prediction Accuracy: 99.7225% MPKI: 0.50376 Average ROB Occupancy at Mispredict: 115.597

Branch types
NOT_BRANCH: 40923872 81.8477%
BRANCH_DIRECT_JUMP: 487044 0.974088%
BRANCH_INDIRECT: 169158 0.338316%
BRANCH_CONDITIONAL: 6640822 13.2816%
BRANCH_DIRECT_CALL: 755586 1.51117%
BRANCH_INDIRECT_CALL: 133962 0.267924%
BRANCH_RETURN: 889566 1.77913%
BRANCH_OTHER: 0 0%

