Initialize SIGNATURE TABLE
ST_SET: 1
ST_WAY: 256
ST_TAG_BIT: 16
ST_TAG_MASK: ffff

Initialize PATTERN TABLE
PT_SET: 512
PT_WAY: 4
SIG_DELTA_BIT: 7
C_SIG_BIT: 4
C_DELTA_BIT: 4

Initialize PREFETCH FILTER
FILTER_SET: 1024

*** ChampSim Multicore Out-of-Order Simulator ***

Warmup Instructions: 50000000
Simulation Instructions: 50000000
Number of CPUs: 1
LLC sets: 2048
LLC ways: 16
Off-chip DRAM Size: 4096 MB Channels: 1 Width: 64-bit Data Rate: 3200 MT/s

CPU 0 runs /home/ykhodke/ChampSim/dpc3_traces/server_014.champsimtrace.xz
L1I D-JOLT instruction prefetcher has been constructed!
CPU 0 L1D next line prefetcher
Heartbeat CPU 0 instructions: 10000003 cycles: 3519550 heartbeat IPC: 2.84127 cumulative IPC: 2.84127 (Simulation time: 0 hr 3 min 15 sec) 
Heartbeat CPU 0 instructions: 20000000 cycles: 7106426 heartbeat IPC: 2.78794 cumulative IPC: 2.81435 (Simulation time: 0 hr 6 min 39 sec) 
Heartbeat CPU 0 instructions: 30000001 cycles: 10647925 heartbeat IPC: 2.82366 cumulative IPC: 2.81745 (Simulation time: 0 hr 9 min 50 sec) 
Heartbeat CPU 0 instructions: 40000003 cycles: 14196147 heartbeat IPC: 2.81831 cumulative IPC: 2.81767 (Simulation time: 0 hr 12 min 38 sec) 
Heartbeat CPU 0 instructions: 50000000 cycles: 17744820 heartbeat IPC: 2.81795 cumulative IPC: 2.81772 (Simulation time: 0 hr 15 min 38 sec) 

Warmup complete CPU 0 instructions: 50000001 cycles: 17744821 (Simulation time: 0 hr 15 min 38 sec) 

Heartbeat CPU 0 instructions: 60000000 cycles: 24031931 heartbeat IPC: 1.59056 cumulative IPC: 1.59056 (Simulation time: 0 hr 18 min 45 sec) 
Heartbeat CPU 0 instructions: 70000003 cycles: 30323471 heartbeat IPC: 1.58944 cumulative IPC: 1.59 (Simulation time: 0 hr 21 min 57 sec) 
*** Reached end of trace for Core: 0 Repeating trace: /home/ykhodke/ChampSim/dpc3_traces/server_014.champsimtrace.xz
Heartbeat CPU 0 instructions: 80000001 cycles: 36885208 heartbeat IPC: 1.52399 cumulative IPC: 1.56737 (Simulation time: 0 hr 24 min 56 sec) 
Heartbeat CPU 0 instructions: 90000003 cycles: 44351488 heartbeat IPC: 1.33936 cumulative IPC: 1.50338 (Simulation time: 0 hr 27 min 39 sec) 
Heartbeat CPU 0 instructions: 100000001 cycles: 50835163 heartbeat IPC: 1.54233 cumulative IPC: 1.51101 (Simulation time: 0 hr 29 min 31 sec) 
Finished CPU 0 instructions: 50000000 cycles: 33090342 cumulative IPC: 1.51101 (Simulation time: 0 hr 29 min 31 sec) 

ChampSim completed all CPUs

Region of Interest Statistics

CPU 0 cumulative IPC: 1.51101 instructions: 50000000 cycles: 33090342
L1D TOTAL     ACCESS:   21626208  HIT:   21555353  MISS:      70855
L1D LOAD      ACCESS:    6672896  HIT:    6645982  MISS:      26914
L1D RFO       ACCESS:    8412739  HIT:    8380673  MISS:      32066
L1D PREFETCH  ACCESS:    6540573  HIT:    6528698  MISS:      11875
L1D WRITEBACK ACCESS:          0  HIT:          0  MISS:          0
L1D PREFETCH  REQUESTED:    6677194  ISSUED:    6568091  USEFUL:       3322  USELESS:       8553
L1D AVERAGE MISS LATENCY: 228.95 cycles
L1I TOTAL     ACCESS:   21271821  HIT:   16829756  MISS:    4442065
L1I LOAD      ACCESS:    9750231  HIT:    9680967  MISS:      69264
L1I RFO       ACCESS:          0  HIT:          0  MISS:          0
L1I PREFETCH  ACCESS:   11521590  HIT:    7148789  MISS:    4372801
L1I WRITEBACK ACCESS:          0  HIT:          0  MISS:          0
L1I PREFETCH  REQUESTED:   12284692  ISSUED:   12011171  USEFUL:    2810516  USELESS:    1562262
L1I AVERAGE MISS LATENCY: 14.8932 cycles
L2C TOTAL     ACCESS:    6475146  HIT:    6403523  MISS:      71623
L2C LOAD      ACCESS:      88545  HIT:      69975  MISS:      18570
L2C RFO       ACCESS:      32020  HIT:       1065  MISS:      30955
L2C PREFETCH  ACCESS:    6316214  HIT:    6294124  MISS:      22090
L2C WRITEBACK ACCESS:      38367  HIT:      38359  MISS:          8
L2C PREFETCH  REQUESTED:    5042430  ISSUED:    5038459  USEFUL:       1218  USELESS:      20610
L2C AVERAGE MISS LATENCY: 259.677 cycles
LLC TOTAL     ACCESS:    1095265  HIT:    1029812  MISS:      65453
LLC LOAD      ACCESS:      17339  HIT:       5136  MISS:      12203
LLC RFO       ACCESS:      30955  HIT:       4738  MISS:      26217
LLC PREFETCH  ACCESS:    1012102  HIT:     985174  MISS:      26928
LLC WRITEBACK ACCESS:      34869  HIT:      34764  MISS:        105
LLC PREFETCH  REQUESTED:          0  ISSUED:          0  USEFUL:       4513  USELESS:      23387
LLC AVERAGE MISS LATENCY: 319.008 cycles
Major fault: 0 Minor fault: 1917
CPU 0 L1D next line prefetcher final stats

DRAM Statistics
 CHANNEL 0
 RQ ROW_BUFFER_HIT:      28833  ROW_BUFFER_MISS:      36511
 DBUS_CONGESTED:      66214
 WQ ROW_BUFFER_HIT:       8213  ROW_BUFFER_MISS:      24101  FULL:          0

 AVG_CONGESTED_CYCLE: 6

CPU 0 Branch Prediction Accuracy: 99.7719% MPKI: 0.38824 Average ROB Occupancy at Mispredict: 154.049

Branch types
NOT_BRANCH: 41489020 82.978%
BRANCH_DIRECT_JUMP: 449417 0.898834%
BRANCH_INDIRECT: 2330 0.00466%
BRANCH_CONDITIONAL: 5470016 10.94%
BRANCH_DIRECT_CALL: 1172188 2.34438%
BRANCH_INDIRECT_CALL: 122383 0.244766%
BRANCH_RETURN: 1294554 2.58911%
BRANCH_OTHER: 0 0%

