Initialize SIGNATURE TABLE
ST_SET: 1
ST_WAY: 256
ST_TAG_BIT: 16
ST_TAG_MASK: ffff

Initialize PATTERN TABLE
PT_SET: 512
PT_WAY: 4
SIG_DELTA_BIT: 7
C_SIG_BIT: 4
C_DELTA_BIT: 4

Initialize PREFETCH FILTER
FILTER_SET: 1024

*** ChampSim Multicore Out-of-Order Simulator ***

Warmup Instructions: 50000000
Simulation Instructions: 50000000
Number of CPUs: 1
LLC sets: 2048
LLC ways: 16
Off-chip DRAM Size: 4096 MB Channels: 1 Width: 64-bit Data Rate: 3200 MT/s

CPU 0 runs /home/ykhodke/ChampSim/dpc3_traces/server_024.champsimtrace.xz
LHT KB: 126.25
SCC KB: 1.56
Total KB: 127.81
CPU 0 L1D next line prefetcher
Heartbeat CPU 0 instructions: 10000000 cycles: 3503372 heartbeat IPC: 2.85439 cumulative IPC: 2.85439 (Simulation time: 0 hr 3 min 28 sec) 
Heartbeat CPU 0 instructions: 20000002 cycles: 6999003 heartbeat IPC: 2.86071 cumulative IPC: 2.85755 (Simulation time: 0 hr 6 min 53 sec) 
Heartbeat CPU 0 instructions: 30000000 cycles: 10505915 heartbeat IPC: 2.85151 cumulative IPC: 2.85553 (Simulation time: 0 hr 10 min 7 sec) 
Heartbeat CPU 0 instructions: 40000000 cycles: 14010262 heartbeat IPC: 2.8536 cumulative IPC: 2.85505 (Simulation time: 0 hr 13 min 51 sec) 
Heartbeat CPU 0 instructions: 50000001 cycles: 17503530 heartbeat IPC: 2.86265 cumulative IPC: 2.85657 (Simulation time: 0 hr 17 min 35 sec) 

Warmup complete CPU 0 instructions: 50000001 cycles: 17503530 (Simulation time: 0 hr 17 min 35 sec) 

Heartbeat CPU 0 instructions: 60000002 cycles: 24433780 heartbeat IPC: 1.44295 cumulative IPC: 1.44295 (Simulation time: 0 hr 21 min 39 sec) 
Heartbeat CPU 0 instructions: 70000000 cycles: 31404387 heartbeat IPC: 1.43459 cumulative IPC: 1.43876 (Simulation time: 0 hr 25 min 8 sec) 
*** Reached end of trace for Core: 0 Repeating trace: /home/ykhodke/ChampSim/dpc3_traces/server_024.champsimtrace.xz
Heartbeat CPU 0 instructions: 80000003 cycles: 38352417 heartbeat IPC: 1.43926 cumulative IPC: 1.43893 (Simulation time: 0 hr 27 min 52 sec) 
Heartbeat CPU 0 instructions: 90000003 cycles: 45363755 heartbeat IPC: 1.42626 cumulative IPC: 1.43574 (Simulation time: 0 hr 29 min 30 sec) 
Heartbeat CPU 0 instructions: 100000002 cycles: 52327361 heartbeat IPC: 1.43604 cumulative IPC: 1.4358 (Simulation time: 0 hr 30 min 16 sec) 
Finished CPU 0 instructions: 50000001 cycles: 34823831 cumulative IPC: 1.4358 (Simulation time: 0 hr 30 min 16 sec) 

ChampSim completed all CPUs

Region of Interest Statistics

CPU 0 cumulative IPC: 1.4358 instructions: 50000001 cycles: 34823831
L1D TOTAL     ACCESS:   19815235  HIT:   18297369  MISS:    1517866
L1D LOAD      ACCESS:    6996572  HIT:    6314447  MISS:     682125
L1D RFO       ACCESS:    6153835  HIT:    5879756  MISS:     274079
L1D PREFETCH  ACCESS:    6664828  HIT:    6103166  MISS:     561662
L1D WRITEBACK ACCESS:          0  HIT:          0  MISS:          0
L1D PREFETCH  REQUESTED:    7051541  ISSUED:    6933434  USEFUL:     134041  USELESS:     427626
L1D AVERAGE MISS LATENCY: 26.0255 cycles
L1I TOTAL     ACCESS:   24929636  HIT:   19664185  MISS:    5265451
L1I LOAD      ACCESS:    9250767  HIT:    8793657  MISS:     457110
L1I RFO       ACCESS:          0  HIT:          0  MISS:          0
L1I PREFETCH  ACCESS:   15678869  HIT:   10870528  MISS:    4808341
L1I WRITEBACK ACCESS:          0  HIT:          0  MISS:          0
L1I PREFETCH  REQUESTED:   18300577  ISSUED:   18300577  USEFUL:    2264678  USELESS:    2543652
L1I AVERAGE MISS LATENCY: 15.5741 cycles
L2C TOTAL     ACCESS:    9071173  HIT:    8311265  MISS:     759908
L2C LOAD      ACCESS:     715020  HIT:     563374  MISS:     151646
L2C RFO       ACCESS:     272138  HIT:     188455  MISS:      83683
L2C PREFETCH  ACCESS:    7563863  HIT:    7046055  MISS:     517808
L2C WRITEBACK ACCESS:     520152  HIT:     513381  MISS:       6771
L2C PREFETCH  REQUESTED:    4925310  ISSUED:    4920754  USEFUL:      21406  USELESS:     495402
L2C AVERAGE MISS LATENCY: 41.9307 cycles
LLC TOTAL     ACCESS:    2221390  HIT:    2170375  MISS:      51015
LLC LOAD      ACCESS:     151464  HIT:     146352  MISS:       5112
LLC RFO       ACCESS:      83678  HIT:      61415  MISS:      22263
LLC PREFETCH  ACCESS:    1841005  HIT:    1817599  MISS:      23406
LLC WRITEBACK ACCESS:     145243  HIT:     145009  MISS:        234
LLC PREFETCH  REQUESTED:          0  ISSUED:          0  USEFUL:       1693  USELESS:      21575
LLC AVERAGE MISS LATENCY: 200.837 cycles
Major fault: 0 Minor fault: 2379
CPU 0 L1D next line prefetcher final stats

DRAM Statistics
 CHANNEL 0
 RQ ROW_BUFFER_HIT:      17279  ROW_BUFFER_MISS:      33499
 DBUS_CONGESTED:      37095
 WQ ROW_BUFFER_HIT:       2557  ROW_BUFFER_MISS:      23068  FULL:          0

 AVG_CONGESTED_CYCLE: 6

CPU 0 Branch Prediction Accuracy: 99.7477% MPKI: 0.46156 Average ROB Occupancy at Mispredict: 161.608

Branch types
NOT_BRANCH: 40853586 81.7072%
BRANCH_DIRECT_JUMP: 566813 1.13363%
BRANCH_INDIRECT: 197171 0.394342%
BRANCH_CONDITIONAL: 6308404 12.6168%
BRANCH_DIRECT_CALL: 876399 1.7528%
BRANCH_INDIRECT_CALL: 160491 0.320982%
BRANCH_RETURN: 1036885 2.07377%
BRANCH_OTHER: 0 0%

