Initialize SIGNATURE TABLE
ST_SET: 1
ST_WAY: 256
ST_TAG_BIT: 16
ST_TAG_MASK: ffff

Initialize PATTERN TABLE
PT_SET: 512
PT_WAY: 4
SIG_DELTA_BIT: 7
C_SIG_BIT: 4
C_DELTA_BIT: 4

Initialize PREFETCH FILTER
FILTER_SET: 1024

*** ChampSim Multicore Out-of-Order Simulator ***

Warmup Instructions: 50000000
Simulation Instructions: 50000000
Number of CPUs: 1
LLC sets: 2048
LLC ways: 16
Off-chip DRAM Size: 4096 MB Channels: 1 Width: 64-bit Data Rate: 3200 MT/s

CPU 0 runs /home/ykhodke/ChampSim/dpc3_traces/server_014.champsimtrace.xz
CPU 0 L1D next line prefetcher
Heartbeat CPU 0 instructions: 10000003 cycles: 3519546 heartbeat IPC: 2.84128 cumulative IPC: 2.84128 (Simulation time: 0 hr 0 min 14 sec) 
Heartbeat CPU 0 instructions: 20000000 cycles: 7106373 heartbeat IPC: 2.78798 cumulative IPC: 2.81438 (Simulation time: 0 hr 0 min 28 sec) 
Heartbeat CPU 0 instructions: 30000001 cycles: 10647912 heartbeat IPC: 2.82363 cumulative IPC: 2.81745 (Simulation time: 0 hr 0 min 42 sec) 
Heartbeat CPU 0 instructions: 40000003 cycles: 14196130 heartbeat IPC: 2.81832 cumulative IPC: 2.81767 (Simulation time: 0 hr 0 min 55 sec) 
Heartbeat CPU 0 instructions: 50000000 cycles: 17744805 heartbeat IPC: 2.81795 cumulative IPC: 2.81773 (Simulation time: 0 hr 1 min 9 sec) 

Warmup complete CPU 0 instructions: 50000001 cycles: 17744806 (Simulation time: 0 hr 1 min 9 sec) 

Heartbeat CPU 0 instructions: 60000000 cycles: 25945960 heartbeat IPC: 1.21934 cumulative IPC: 1.21934 (Simulation time: 0 hr 1 min 20 sec) 
Heartbeat CPU 0 instructions: 70000000 cycles: 34142649 heartbeat IPC: 1.22 cumulative IPC: 1.21967 (Simulation time: 0 hr 1 min 32 sec) 
*** Reached end of trace for Core: 0 Repeating trace: /home/ykhodke/ChampSim/dpc3_traces/server_014.champsimtrace.xz
Heartbeat CPU 0 instructions: 80000001 cycles: 42088391 heartbeat IPC: 1.25854 cumulative IPC: 1.23236 (Simulation time: 0 hr 1 min 43 sec) 
Heartbeat CPU 0 instructions: 90000003 cycles: 51543132 heartbeat IPC: 1.05767 cumulative IPC: 1.18349 (Simulation time: 0 hr 1 min 55 sec) 
Heartbeat CPU 0 instructions: 100000000 cycles: 59927609 heartbeat IPC: 1.19268 cumulative IPC: 1.18532 (Simulation time: 0 hr 2 min 6 sec) 
Finished CPU 0 instructions: 50000000 cycles: 42182805 cumulative IPC: 1.18532 (Simulation time: 0 hr 2 min 6 sec) 

ChampSim completed all CPUs

Region of Interest Statistics

CPU 0 cumulative IPC: 1.18532 instructions: 50000000 cycles: 42182805
L1D TOTAL     ACCESS:   23144852  HIT:   23073986  MISS:      70866
L1D LOAD      ACCESS:    7414653  HIT:    7387833  MISS:      26820
L1D RFO       ACCESS:    8435220  HIT:    8403133  MISS:      32087
L1D PREFETCH  ACCESS:    7294979  HIT:    7283020  MISS:      11959
L1D WRITEBACK ACCESS:          0  HIT:          0  MISS:          0
L1D PREFETCH  REQUESTED:    7419140  ISSUED:    7324677  USEFUL:       3404  USELESS:       8555
L1D AVERAGE MISS LATENCY: 225.403 cycles
L1I TOTAL     ACCESS:    9618212  HIT:    8107663  MISS:    1510549
L1I LOAD      ACCESS:    9618212  HIT:    8107663  MISS:    1510549
L1I RFO       ACCESS:          0  HIT:          0  MISS:          0
L1I PREFETCH  ACCESS:          0  HIT:          0  MISS:          0
L1I WRITEBACK ACCESS:          0  HIT:          0  MISS:          0
L1I PREFETCH  REQUESTED:          0  ISSUED:          0  USEFUL:          0  USELESS:          0
L1I AVERAGE MISS LATENCY: 14.797 cycles
L2C TOTAL     ACCESS:    2890249  HIT:    2820344  MISS:      69905
L2C LOAD      ACCESS:    1532677  HIT:    1505787  MISS:      26890
L2C RFO       ACCESS:      32036  HIT:       1135  MISS:      30901
L2C PREFETCH  ACCESS:    1287167  HIT:    1275066  MISS:      12101
L2C WRITEBACK ACCESS:      38369  HIT:      38356  MISS:         13
L2C PREFETCH  REQUESTED:    2094132  ISSUED:    2094132  USEFUL:        817  USELESS:      11670
L2C AVERAGE MISS LATENCY: 248.862 cycles
LLC TOTAL     ACCESS:     474372  HIT:     409658  MISS:      64714
LLC LOAD      ACCESS:      25827  HIT:      10039  MISS:      15788
LLC RFO       ACCESS:      30901  HIT:       4567  MISS:      26334
LLC PREFETCH  ACCESS:     382848  HIT:     360371  MISS:      22477
LLC WRITEBACK ACCESS:      34796  HIT:      34681  MISS:        115
LLC PREFETCH  REQUESTED:          0  ISSUED:          0  USEFUL:       6038  USELESS:      18606
LLC AVERAGE MISS LATENCY: 294.261 cycles
Major fault: 0 Minor fault: 1911
CPU 0 L1D next line prefetcher final stats

DRAM Statistics
 CHANNEL 0
 RQ ROW_BUFFER_HIT:      27472  ROW_BUFFER_MISS:      37125
 DBUS_CONGESTED:      65656
 WQ ROW_BUFFER_HIT:       9657  ROW_BUFFER_MISS:      22958  FULL:          0

 AVG_CONGESTED_CYCLE: 6

CPU 0 Branch Prediction Accuracy: 99.7719% MPKI: 0.38824 Average ROB Occupancy at Mispredict: 58.8882

Branch types
NOT_BRANCH: 41488790 82.9776%
BRANCH_DIRECT_JUMP: 449415 0.89883%
BRANCH_INDIRECT: 2330 0.00466%
BRANCH_CONDITIONAL: 5470000 10.94%
BRANCH_DIRECT_CALL: 1172177 2.34435%
BRANCH_INDIRECT_CALL: 122383 0.244766%
BRANCH_RETURN: 1294544 2.58909%
BRANCH_OTHER: 0 0%

