Initialize SIGNATURE TABLE
ST_SET: 1
ST_WAY: 256
ST_TAG_BIT: 16
ST_TAG_MASK: ffff

Initialize PATTERN TABLE
PT_SET: 512
PT_WAY: 4
SIG_DELTA_BIT: 7
C_SIG_BIT: 4
C_DELTA_BIT: 4

Initialize PREFETCH FILTER
FILTER_SET: 1024

*** ChampSim Multicore Out-of-Order Simulator ***

Warmup Instructions: 50000000
Simulation Instructions: 50000000
Number of CPUs: 1
LLC sets: 2048
LLC ways: 16
Off-chip DRAM Size: 4096 MB Channels: 1 Width: 64-bit Data Rate: 3200 MT/s

CPU 0 runs /home/ykhodke/ChampSim/dpc3_traces/server_002.champsimtrace.xz
L1I D-JOLT instruction prefetcher has been constructed!
CPU 0 L1D next line prefetcher
Heartbeat CPU 0 instructions: 10000000 cycles: 3581237 heartbeat IPC: 2.79233 cumulative IPC: 2.79233 (Simulation time: 0 hr 3 min 31 sec) 
Heartbeat CPU 0 instructions: 20000002 cycles: 7170086 heartbeat IPC: 2.78641 cumulative IPC: 2.78937 (Simulation time: 0 hr 7 min 1 sec) 
Heartbeat CPU 0 instructions: 30000000 cycles: 10710829 heartbeat IPC: 2.82427 cumulative IPC: 2.8009 (Simulation time: 0 hr 9 min 48 sec) 
Heartbeat CPU 0 instructions: 40000000 cycles: 14261074 heartbeat IPC: 2.81671 cumulative IPC: 2.80484 (Simulation time: 0 hr 13 min 8 sec) 
Heartbeat CPU 0 instructions: 50000001 cycles: 17808845 heartbeat IPC: 2.81867 cumulative IPC: 2.80759 (Simulation time: 0 hr 16 min 5 sec) 

Warmup complete CPU 0 instructions: 50000001 cycles: 17808845 (Simulation time: 0 hr 16 min 5 sec) 

Heartbeat CPU 0 instructions: 60000000 cycles: 24249296 heartbeat IPC: 1.55269 cumulative IPC: 1.55269 (Simulation time: 0 hr 19 min 44 sec) 
Heartbeat CPU 0 instructions: 70000003 cycles: 30682882 heartbeat IPC: 1.55434 cumulative IPC: 1.55351 (Simulation time: 0 hr 23 min 19 sec) 
Heartbeat CPU 0 instructions: 80000003 cycles: 37119028 heartbeat IPC: 1.55372 cumulative IPC: 1.55358 (Simulation time: 0 hr 25 min 56 sec) 
Heartbeat CPU 0 instructions: 90000002 cycles: 43552398 heartbeat IPC: 1.5544 cumulative IPC: 1.55379 (Simulation time: 0 hr 27 min 41 sec) 
Heartbeat CPU 0 instructions: 100000003 cycles: 49986008 heartbeat IPC: 1.55434 cumulative IPC: 1.5539 (Simulation time: 0 hr 28 min 35 sec) 
Finished CPU 0 instructions: 50000002 cycles: 32177163 cumulative IPC: 1.5539 (Simulation time: 0 hr 28 min 35 sec) 

ChampSim completed all CPUs

Region of Interest Statistics

CPU 0 cumulative IPC: 1.5539 instructions: 50000002 cycles: 32177163
L1D TOTAL     ACCESS:   21522622  HIT:   21521813  MISS:        809
L1D LOAD      ACCESS:    6600956  HIT:    6600580  MISS:        376
L1D RFO       ACCESS:    8433017  HIT:    8432904  MISS:        113
L1D PREFETCH  ACCESS:    6488649  HIT:    6488329  MISS:        320
L1D WRITEBACK ACCESS:          0  HIT:          0  MISS:          0
L1D PREFETCH  REQUESTED:    6601007  ISSUED:    6496012  USEFUL:         91  USELESS:        230
L1D AVERAGE MISS LATENCY: 37.1978 cycles
L1I TOTAL     ACCESS:   18253020  HIT:   15150827  MISS:    3102193
L1I LOAD      ACCESS:    9924643  HIT:    9924348  MISS:        295
L1I RFO       ACCESS:          0  HIT:          0  MISS:          0
L1I PREFETCH  ACCESS:    8328377  HIT:    5226479  MISS:    3101898
L1I WRITEBACK ACCESS:          0  HIT:          0  MISS:          0
L1I PREFETCH  REQUESTED:    8482314  ISSUED:    8481898  USEFUL:    2045639  USELESS:    1056248
L1I AVERAGE MISS LATENCY: 14.4218 cycles
L2C TOTAL     ACCESS:    4482821  HIT:    4482524  MISS:        297
L2C LOAD      ACCESS:        629  HIT:        558  MISS:         71
L2C RFO       ACCESS:        112  HIT:        110  MISS:          2
L2C PREFETCH  ACCESS:    4481745  HIT:    4481522  MISS:        223
L2C WRITEBACK ACCESS:        335  HIT:        334  MISS:          1
L2C PREFETCH  REQUESTED:    3409924  ISSUED:    3407374  USEFUL:        108  USELESS:        109
L2C AVERAGE MISS LATENCY: 127.609 cycles
LLC TOTAL     ACCESS:     559984  HIT:     559201  MISS:        783
LLC LOAD      ACCESS:         71  HIT:         61  MISS:         10
LLC RFO       ACCESS:          2  HIT:          0  MISS:          2
LLC PREFETCH  ACCESS:     559819  HIT:     559050  MISS:        769
LLC WRITEBACK ACCESS:         92  HIT:         90  MISS:          2
LLC PREFETCH  REQUESTED:          0  ISSUED:          0  USEFUL:         17  USELESS:        173
LLC AVERAGE MISS LATENCY: 425.402 cycles
Major fault: 0 Minor fault: 1872
CPU 0 L1D next line prefetcher final stats

DRAM Statistics
 CHANNEL 0
 RQ ROW_BUFFER_HIT:        160  ROW_BUFFER_MISS:        621
 DBUS_CONGESTED:        537
 WQ ROW_BUFFER_HIT:         84  ROW_BUFFER_MISS:        461  FULL:          0

 AVG_CONGESTED_CYCLE: 6

CPU 0 Branch Prediction Accuracy: 99.8789% MPKI: 0.20388 Average ROB Occupancy at Mispredict: 278.692

Branch types
NOT_BRANCH: 41580695 83.1614%
BRANCH_DIRECT_JUMP: 461630 0.92326%
BRANCH_INDIRECT: 0 0%
BRANCH_CONDITIONAL: 5376437 10.7529%
BRANCH_DIRECT_CALL: 1175775 2.35155%
BRANCH_INDIRECT_CALL: 114840 0.22968%
BRANCH_RETURN: 1290625 2.58125%
BRANCH_OTHER: 0 0%

