Initialize SIGNATURE TABLE
ST_SET: 1
ST_WAY: 256
ST_TAG_BIT: 16
ST_TAG_MASK: ffff

Initialize PATTERN TABLE
PT_SET: 512
PT_WAY: 4
SIG_DELTA_BIT: 7
C_SIG_BIT: 4
C_DELTA_BIT: 4

Initialize PREFETCH FILTER
FILTER_SET: 1024

*** ChampSim Multicore Out-of-Order Simulator ***

Warmup Instructions: 50000000
Simulation Instructions: 50000000
Number of CPUs: 1
LLC sets: 2048
LLC ways: 16
Off-chip DRAM Size: 4096 MB Channels: 1 Width: 64-bit Data Rate: 3200 MT/s

CPU 0 runs /home/ykhodke/ChampSim/dpc3_traces/server_027.champsimtrace.xz
L1I D-JOLT instruction prefetcher has been constructed!
CPU 0 L1D next line prefetcher
Heartbeat CPU 0 instructions: 10000001 cycles: 3522867 heartbeat IPC: 2.8386 cumulative IPC: 2.8386 (Simulation time: 0 hr 3 min 48 sec) 
Heartbeat CPU 0 instructions: 20000001 cycles: 7050809 heartbeat IPC: 2.83451 cumulative IPC: 2.83655 (Simulation time: 0 hr 7 min 51 sec) 
Heartbeat CPU 0 instructions: 30000002 cycles: 10573910 heartbeat IPC: 2.83841 cumulative IPC: 2.83717 (Simulation time: 0 hr 11 min 50 sec) 
Heartbeat CPU 0 instructions: 40000000 cycles: 14103477 heartbeat IPC: 2.83321 cumulative IPC: 2.83618 (Simulation time: 0 hr 15 min 9 sec) 
Heartbeat CPU 0 instructions: 50000000 cycles: 17626761 heartbeat IPC: 2.83826 cumulative IPC: 2.8366 (Simulation time: 0 hr 18 min 29 sec) 

Warmup complete CPU 0 instructions: 50000004 cycles: 17626762 (Simulation time: 0 hr 18 min 29 sec) 

Heartbeat CPU 0 instructions: 60000002 cycles: 24493998 heartbeat IPC: 1.45619 cumulative IPC: 1.45619 (Simulation time: 0 hr 22 min 18 sec) 
Heartbeat CPU 0 instructions: 70000003 cycles: 31319236 heartbeat IPC: 1.46515 cumulative IPC: 1.46066 (Simulation time: 0 hr 25 min 33 sec) 
Heartbeat CPU 0 instructions: 80000002 cycles: 38148142 heartbeat IPC: 1.46436 cumulative IPC: 1.46189 (Simulation time: 0 hr 28 min 21 sec) 
Heartbeat CPU 0 instructions: 90000001 cycles: 45063934 heartbeat IPC: 1.44597 cumulative IPC: 1.45788 (Simulation time: 0 hr 30 min 11 sec) 
Heartbeat CPU 0 instructions: 100000002 cycles: 51867641 heartbeat IPC: 1.46979 cumulative IPC: 1.46024 (Simulation time: 0 hr 31 min 6 sec) 
Finished CPU 0 instructions: 50000002 cycles: 34240880 cumulative IPC: 1.46024 (Simulation time: 0 hr 31 min 6 sec) 

ChampSim completed all CPUs

Region of Interest Statistics

CPU 0 cumulative IPC: 1.46024 instructions: 50000002 cycles: 34240880
L1D TOTAL     ACCESS:   19875371  HIT:   18273652  MISS:    1601719
L1D LOAD      ACCESS:    6937688  HIT:    6245821  MISS:     691867
L1D RFO       ACCESS:    6287931  HIT:    6002838  MISS:     285093
L1D PREFETCH  ACCESS:    6649752  HIT:    6024993  MISS:     624759
L1D WRITEBACK ACCESS:          0  HIT:          0  MISS:          0
L1D PREFETCH  REQUESTED:    6983904  ISSUED:    6856914  USEFUL:     149743  USELESS:     475026
L1D AVERAGE MISS LATENCY: 24.3374 cycles
L1I TOTAL     ACCESS:   16001629  HIT:   12650017  MISS:    3351612
L1I LOAD      ACCESS:    9492652  HIT:    9447756  MISS:      44896
L1I RFO       ACCESS:          0  HIT:          0  MISS:          0
L1I PREFETCH  ACCESS:    6508977  HIT:    3202261  MISS:    3306716
L1I WRITEBACK ACCESS:          0  HIT:          0  MISS:          0
L1I PREFETCH  REQUESTED:    6885816  ISSUED:    6788041  USEFUL:    2775242  USELESS:     531511
L1I AVERAGE MISS LATENCY: 20.4201 cycles
L2C TOTAL     ACCESS:    6806377  HIT:    5823714  MISS:     982663
L2C LOAD      ACCESS:     700834  HIT:     548352  MISS:     152482
L2C RFO       ACCESS:     283564  HIT:     189456  MISS:      94108
L2C PREFETCH  ACCESS:    5262769  HIT:    4533744  MISS:     729025
L2C WRITEBACK ACCESS:     559210  HIT:     552162  MISS:       7048
L2C PREFETCH  REQUESTED:    4331819  ISSUED:    4329438  USEFUL:      10642  USELESS:     718272
L2C AVERAGE MISS LATENCY: 36.7086 cycles
LLC TOTAL     ACCESS:    2373033  HIT:    2340219  MISS:      32814
LLC LOAD      ACCESS:     152307  HIT:     148751  MISS:       3556
LLC RFO       ACCESS:      94105  HIT:      80152  MISS:      13953
LLC PREFETCH  ACCESS:    1959548  HIT:    1944443  MISS:      15105
LLC WRITEBACK ACCESS:     167073  HIT:     166873  MISS:        200
LLC PREFETCH  REQUESTED:          0  ISSUED:          0  USEFUL:       1256  USELESS:      14496
LLC AVERAGE MISS LATENCY: 183.494 cycles
Major fault: 0 Minor fault: 2485
CPU 0 L1D next line prefetcher final stats

DRAM Statistics
 CHANNEL 0
 RQ ROW_BUFFER_HIT:      11082  ROW_BUFFER_MISS:      21528
 DBUS_CONGESTED:      22141
 WQ ROW_BUFFER_HIT:       1386  ROW_BUFFER_MISS:      14065  FULL:          0

 AVG_CONGESTED_CYCLE: 6

CPU 0 Branch Prediction Accuracy: 99.8082% MPKI: 0.35064 Average ROB Occupancy at Mispredict: 186.427

Branch types
NOT_BRANCH: 40857514 81.715%
BRANCH_DIRECT_JUMP: 526635 1.05327%
BRANCH_INDIRECT: 205902 0.411804%
BRANCH_CONDITIONAL: 6184050 12.3681%
BRANCH_DIRECT_CALL: 938469 1.87694%
BRANCH_INDIRECT_CALL: 174486 0.348972%
BRANCH_RETURN: 1112959 2.22592%
BRANCH_OTHER: 0 0%

