Initialize SIGNATURE TABLE
ST_SET: 1
ST_WAY: 256
ST_TAG_BIT: 16
ST_TAG_MASK: ffff

Initialize PATTERN TABLE
PT_SET: 512
PT_WAY: 4
SIG_DELTA_BIT: 7
C_SIG_BIT: 4
C_DELTA_BIT: 4

Initialize PREFETCH FILTER
FILTER_SET: 1024

*** ChampSim Multicore Out-of-Order Simulator ***

Warmup Instructions: 50000000
Simulation Instructions: 50000000
Number of CPUs: 1
LLC sets: 2048
LLC ways: 16
Off-chip DRAM Size: 4096 MB Channels: 1 Width: 64-bit Data Rate: 3200 MT/s

CPU 0 runs /home/ykhodke/ChampSim/dpc3_traces/server_018.champsimtrace.xz
L1I D-JOLT instruction prefetcher has been constructed!
CPU 0 L1D next line prefetcher
Heartbeat CPU 0 instructions: 10000003 cycles: 3616116 heartbeat IPC: 2.7654 cumulative IPC: 2.7654 (Simulation time: 0 hr 3 min 41 sec) 
Heartbeat CPU 0 instructions: 20000001 cycles: 7237460 heartbeat IPC: 2.76141 cumulative IPC: 2.7634 (Simulation time: 0 hr 7 min 10 sec) 
Heartbeat CPU 0 instructions: 30000003 cycles: 10712426 heartbeat IPC: 2.87773 cumulative IPC: 2.80049 (Simulation time: 0 hr 10 min 27 sec) 
Heartbeat CPU 0 instructions: 40000000 cycles: 14224134 heartbeat IPC: 2.84762 cumulative IPC: 2.81212 (Simulation time: 0 hr 13 min 33 sec) 
Heartbeat CPU 0 instructions: 50000003 cycles: 17841431 heartbeat IPC: 2.7645 cumulative IPC: 2.80247 (Simulation time: 0 hr 17 min 0 sec) 

Warmup complete CPU 0 instructions: 50000003 cycles: 17841431 (Simulation time: 0 hr 17 min 0 sec) 

Heartbeat CPU 0 instructions: 60000000 cycles: 35215051 heartbeat IPC: 0.575585 cumulative IPC: 0.575585 (Simulation time: 0 hr 20 min 57 sec) 
Heartbeat CPU 0 instructions: 70000001 cycles: 52659260 heartbeat IPC: 0.573256 cumulative IPC: 0.574418 (Simulation time: 0 hr 24 min 52 sec) 
Heartbeat CPU 0 instructions: 80000000 cycles: 70074169 heartbeat IPC: 0.574221 cumulative IPC: 0.574352 (Simulation time: 0 hr 28 min 2 sec) 
Heartbeat CPU 0 instructions: 90000002 cycles: 87518250 heartbeat IPC: 0.57326 cumulative IPC: 0.574079 (Simulation time: 0 hr 29 min 36 sec) 
Heartbeat CPU 0 instructions: 100000001 cycles: 104973474 heartbeat IPC: 0.572894 cumulative IPC: 0.573842 (Simulation time: 0 hr 30 min 11 sec) 
Finished CPU 0 instructions: 50000002 cycles: 87132045 cumulative IPC: 0.573842 (Simulation time: 0 hr 30 min 11 sec) 

ChampSim completed all CPUs

Region of Interest Statistics

CPU 0 cumulative IPC: 0.573842 instructions: 50000002 cycles: 87132045
L1D TOTAL     ACCESS:   18608906  HIT:   16391300  MISS:    2217606
L1D LOAD      ACCESS:    7042999  HIT:    6320111  MISS:     722888
L1D RFO       ACCESS:    5801250  HIT:    4849001  MISS:     952249
L1D PREFETCH  ACCESS:    5764657  HIT:    5222188  MISS:     542469
L1D WRITEBACK ACCESS:          0  HIT:          0  MISS:          0
L1D PREFETCH  REQUESTED:    7084637  ISSUED:    6881791  USEFUL:     202779  USELESS:     339779
L1D AVERAGE MISS LATENCY: 177.993 cycles
L1I TOTAL     ACCESS:   18712913  HIT:   15207644  MISS:    3505269
L1I LOAD      ACCESS:   10136700  HIT:   10089490  MISS:      47210
L1I RFO       ACCESS:          0  HIT:          0  MISS:          0
L1I PREFETCH  ACCESS:    8576213  HIT:    5118154  MISS:    3458059
L1I WRITEBACK ACCESS:          0  HIT:          0  MISS:          0
L1I PREFETCH  REQUESTED:    9187818  ISSUED:    9138280  USEFUL:    2738515  USELESS:     719435
L1I AVERAGE MISS LATENCY: 17.6299 cycles
L2C TOTAL     ACCESS:    8430902  HIT:    6569171  MISS:    1861731
L2C LOAD      ACCESS:     542104  HIT:     277687  MISS:     264417
L2C RFO       ACCESS:     951727  HIT:      19218  MISS:     932509
L2C PREFETCH  ACCESS:    5767034  HIT:    5105863  MISS:     661171
L2C WRITEBACK ACCESS:    1170037  HIT:    1166403  MISS:       3634
L2C PREFETCH  REQUESTED:    5188673  ISSUED:    5182396  USEFUL:      21284  USELESS:     641045
L2C AVERAGE MISS LATENCY: 216.32 cycles
LLC TOTAL     ACCESS:    4263724  HIT:    2818209  MISS:    1445515
LLC LOAD      ACCESS:     264381  HIT:     165301  MISS:      99080
LLC RFO       ACCESS:     932505  HIT:     136856  MISS:     795649
LLC PREFETCH  ACCESS:    1963578  HIT:    1414927  MISS:     548651
LLC WRITEBACK ACCESS:    1103260  HIT:    1101125  MISS:       2135
LLC PREFETCH  REQUESTED:          0  ISSUED:          0  USEFUL:      29754  USELESS:     519022
LLC AVERAGE MISS LATENCY: 285.857 cycles
Major fault: 0 Minor fault: 22445
CPU 0 L1D next line prefetcher final stats

DRAM Statistics
 CHANNEL 0
 RQ ROW_BUFFER_HIT:     405688  ROW_BUFFER_MISS:    1037396
 DBUS_CONGESTED:    1454270
 WQ ROW_BUFFER_HIT:     253575  ROW_BUFFER_MISS:     643336  FULL:          0

 AVG_CONGESTED_CYCLE: 6

CPU 0 Branch Prediction Accuracy: 99.7114% MPKI: 0.47678 Average ROB Occupancy at Mispredict: 213.005

Branch types
NOT_BRANCH: 41740997 83.482%
BRANCH_DIRECT_JUMP: 458652 0.917304%
BRANCH_INDIRECT: 48282 0.096564%
BRANCH_CONDITIONAL: 5930880 11.8618%
BRANCH_DIRECT_CALL: 744230 1.48846%
BRANCH_INDIRECT_CALL: 166336 0.332672%
BRANCH_RETURN: 910589 1.82118%
BRANCH_OTHER: 0 0%

