Initialize SIGNATURE TABLE
ST_SET: 1
ST_WAY: 256
ST_TAG_BIT: 16
ST_TAG_MASK: ffff

Initialize PATTERN TABLE
PT_SET: 512
PT_WAY: 4
SIG_DELTA_BIT: 7
C_SIG_BIT: 4
C_DELTA_BIT: 4

Initialize PREFETCH FILTER
FILTER_SET: 1024

*** ChampSim Multicore Out-of-Order Simulator ***

Warmup Instructions: 50000000
Simulation Instructions: 50000000
Number of CPUs: 1
LLC sets: 2048
LLC ways: 16
Off-chip DRAM Size: 4096 MB Channels: 1 Width: 64-bit Data Rate: 3200 MT/s

CPU 0 runs /home/ykhodke/ChampSim/dpc3_traces/server_029.champsimtrace.xz
LHT KB: 126.25
SCC KB: 1.56
Total KB: 127.81
CPU 0 L1D next line prefetcher
Heartbeat CPU 0 instructions: 10000001 cycles: 3497299 heartbeat IPC: 2.85935 cumulative IPC: 2.85935 (Simulation time: 0 hr 3 min 16 sec) 
Heartbeat CPU 0 instructions: 20000002 cycles: 6993660 heartbeat IPC: 2.86012 cumulative IPC: 2.85973 (Simulation time: 0 hr 7 min 8 sec) 
Heartbeat CPU 0 instructions: 30000003 cycles: 10491750 heartbeat IPC: 2.8587 cumulative IPC: 2.85939 (Simulation time: 0 hr 10 min 34 sec) 
Heartbeat CPU 0 instructions: 40000000 cycles: 13996792 heartbeat IPC: 2.85303 cumulative IPC: 2.8578 (Simulation time: 0 hr 13 min 49 sec) 
Heartbeat CPU 0 instructions: 50000000 cycles: 17500679 heartbeat IPC: 2.85397 cumulative IPC: 2.85703 (Simulation time: 0 hr 16 min 59 sec) 

Warmup complete CPU 0 instructions: 50000004 cycles: 17500680 (Simulation time: 0 hr 16 min 59 sec) 

Heartbeat CPU 0 instructions: 60000000 cycles: 25117884 heartbeat IPC: 1.31282 cumulative IPC: 1.31282 (Simulation time: 0 hr 20 min 20 sec) 
Heartbeat CPU 0 instructions: 70000003 cycles: 32888147 heartbeat IPC: 1.28696 cumulative IPC: 1.29976 (Simulation time: 0 hr 24 min 2 sec) 
Heartbeat CPU 0 instructions: 80000002 cycles: 40503210 heartbeat IPC: 1.31319 cumulative IPC: 1.3042 (Simulation time: 0 hr 27 min 15 sec) 
*** Reached end of trace for Core: 0 Repeating trace: /home/ykhodke/ChampSim/dpc3_traces/server_029.champsimtrace.xz
Heartbeat CPU 0 instructions: 90000000 cycles: 48042827 heartbeat IPC: 1.32633 cumulative IPC: 1.30967 (Simulation time: 0 hr 29 min 24 sec) 
Heartbeat CPU 0 instructions: 100000003 cycles: 55573011 heartbeat IPC: 1.32799 cumulative IPC: 1.31329 (Simulation time: 0 hr 30 min 40 sec) 
Finished CPU 0 instructions: 50000003 cycles: 38072332 cumulative IPC: 1.31329 (Simulation time: 0 hr 30 min 40 sec) 

ChampSim completed all CPUs

Region of Interest Statistics

CPU 0 cumulative IPC: 1.31329 instructions: 50000003 cycles: 38072332
L1D TOTAL     ACCESS:   19133357  HIT:   17036730  MISS:    2096627
L1D LOAD      ACCESS:    6763288  HIT:    5697754  MISS:    1065534
L1D RFO       ACCESS:    6123569  HIT:    5838429  MISS:     285140
L1D PREFETCH  ACCESS:    6246500  HIT:    5500547  MISS:     745953
L1D WRITEBACK ACCESS:          0  HIT:          0  MISS:          0
L1D PREFETCH  REQUESTED:    6825303  ISSUED:    6718568  USEFUL:     175553  USELESS:     570390
L1D AVERAGE MISS LATENCY: 21.9165 cycles
L1I TOTAL     ACCESS:   26046129  HIT:   20788408  MISS:    5257721
L1I LOAD      ACCESS:    9683334  HIT:    9193243  MISS:     490091
L1I RFO       ACCESS:          0  HIT:          0  MISS:          0
L1I PREFETCH  ACCESS:   16362795  HIT:   11595165  MISS:    4767630
L1I WRITEBACK ACCESS:          0  HIT:          0  MISS:          0
L1I PREFETCH  REQUESTED:   18865106  ISSUED:   18865106  USEFUL:    2610354  USELESS:    2157264
L1I AVERAGE MISS LATENCY: 15.1815 cycles
L2C TOTAL     ACCESS:   10137041  HIT:    9434113  MISS:     702928
L2C LOAD      ACCESS:    1001440  HIT:     831742  MISS:     169698
L2C RFO       ACCESS:     283553  HIT:     233391  MISS:      50162
L2C PREFETCH  ACCESS:    8241461  HIT:    7761136  MISS:     480325
L2C WRITEBACK ACCESS:     610587  HIT:     607844  MISS:       2743
L2C PREFETCH  REQUESTED:    5926843  ISSUED:    5917738  USEFUL:      12842  USELESS:     466875
L2C AVERAGE MISS LATENCY: 41.0306 cycles
LLC TOTAL     ACCESS:    2164125  HIT:    2099432  MISS:      64693
LLC LOAD      ACCESS:     169427  HIT:     153012  MISS:      16415
LLC RFO       ACCESS:      50152  HIT:      46544  MISS:       3608
LLC PREFETCH  ACCESS:    1840524  HIT:    1796391  MISS:      44133
LLC WRITEBACK ACCESS:     104022  HIT:     103485  MISS:        537
LLC PREFETCH  REQUESTED:          0  ISSUED:          0  USEFUL:       2066  USELESS:      42652
LLC AVERAGE MISS LATENCY: 155.734 cycles
Major fault: 0 Minor fault: 5932
CPU 0 L1D next line prefetcher final stats

DRAM Statistics
 CHANNEL 0
 RQ ROW_BUFFER_HIT:      18994  ROW_BUFFER_MISS:      45137
 DBUS_CONGESTED:      25111
 WQ ROW_BUFFER_HIT:        492  ROW_BUFFER_MISS:       4004  FULL:          0

 AVG_CONGESTED_CYCLE: 4

CPU 0 Branch Prediction Accuracy: 99.7245% MPKI: 0.51862 Average ROB Occupancy at Mispredict: 144.238

Branch types
NOT_BRANCH: 40586621 81.1732%
BRANCH_DIRECT_JUMP: 525211 1.05042%
BRANCH_INDIRECT: 166359 0.332718%
BRANCH_CONDITIONAL: 6373091 12.7462%
BRANCH_DIRECT_CALL: 989262 1.97852%
BRANCH_INDIRECT_CALL: 184984 0.369968%
BRANCH_RETURN: 1174250 2.3485%
BRANCH_OTHER: 0 0%

