Initialize SIGNATURE TABLE
ST_SET: 1
ST_WAY: 256
ST_TAG_BIT: 16
ST_TAG_MASK: ffff

Initialize PATTERN TABLE
PT_SET: 512
PT_WAY: 4
SIG_DELTA_BIT: 7
C_SIG_BIT: 4
C_DELTA_BIT: 4

Initialize PREFETCH FILTER
FILTER_SET: 1024

*** ChampSim Multicore Out-of-Order Simulator ***

Warmup Instructions: 50000000
Simulation Instructions: 50000000
Number of CPUs: 1
LLC sets: 2048
LLC ways: 16
Off-chip DRAM Size: 4096 MB Channels: 1 Width: 64-bit Data Rate: 3200 MT/s

CPU 0 runs /home/ykhodke/ChampSim/dpc3_traces/server_017.champsimtrace.xz
LHT KB: 126.25
SCC KB: 1.56
Total KB: 127.81
CPU 0 L1D next line prefetcher
Heartbeat CPU 0 instructions: 10000001 cycles: 3623512 heartbeat IPC: 2.75975 cumulative IPC: 2.75975 (Simulation time: 0 hr 3 min 13 sec) 
Heartbeat CPU 0 instructions: 20000000 cycles: 7245237 heartbeat IPC: 2.76111 cumulative IPC: 2.76043 (Simulation time: 0 hr 6 min 23 sec) 
Heartbeat CPU 0 instructions: 30000002 cycles: 10873094 heartbeat IPC: 2.75645 cumulative IPC: 2.7591 (Simulation time: 0 hr 9 min 34 sec) 
Heartbeat CPU 0 instructions: 40000000 cycles: 14496156 heartbeat IPC: 2.7601 cumulative IPC: 2.75935 (Simulation time: 0 hr 12 min 50 sec) 
Heartbeat CPU 0 instructions: 50000001 cycles: 18130379 heartbeat IPC: 2.75162 cumulative IPC: 2.7578 (Simulation time: 0 hr 16 min 8 sec) 

Warmup complete CPU 0 instructions: 50000001 cycles: 18130379 (Simulation time: 0 hr 16 min 8 sec) 

Heartbeat CPU 0 instructions: 60000002 cycles: 36186555 heartbeat IPC: 0.553827 cumulative IPC: 0.553827 (Simulation time: 0 hr 20 min 40 sec) 
Heartbeat CPU 0 instructions: 70000002 cycles: 54475192 heartbeat IPC: 0.546788 cumulative IPC: 0.550285 (Simulation time: 0 hr 25 min 17 sec) 
Heartbeat CPU 0 instructions: 80000000 cycles: 72480951 heartbeat IPC: 0.555378 cumulative IPC: 0.551972 (Simulation time: 0 hr 28 min 48 sec) 
Heartbeat CPU 0 instructions: 90000002 cycles: 96146598 heartbeat IPC: 0.422554 cumulative IPC: 0.512714 (Simulation time: 0 hr 30 min 42 sec) 
Heartbeat CPU 0 instructions: 100000003 cycles: 116622475 heartbeat IPC: 0.48838 cumulative IPC: 0.507655 (Simulation time: 0 hr 31 min 22 sec) 
Finished CPU 0 instructions: 50000002 cycles: 98492096 cumulative IPC: 0.507655 (Simulation time: 0 hr 31 min 22 sec) 

ChampSim completed all CPUs

Region of Interest Statistics

CPU 0 cumulative IPC: 0.507655 instructions: 50000002 cycles: 98492096
L1D TOTAL     ACCESS:   18400834  HIT:   16235242  MISS:    2165592
L1D LOAD      ACCESS:    7026735  HIT:    6268502  MISS:     758233
L1D RFO       ACCESS:    5552620  HIT:    4693236  MISS:     859384
L1D PREFETCH  ACCESS:    5821479  HIT:    5273504  MISS:     547975
L1D WRITEBACK ACCESS:          0  HIT:          0  MISS:          0
L1D PREFETCH  REQUESTED:    7065477  ISSUED:    6875078  USEFUL:     185608  USELESS:     362428
L1D AVERAGE MISS LATENCY: 174.974 cycles
L1I TOTAL     ACCESS:   23135691  HIT:   20290557  MISS:    2845134
L1I LOAD      ACCESS:    9862153  HIT:    9683433  MISS:     178720
L1I RFO       ACCESS:          0  HIT:          0  MISS:          0
L1I PREFETCH  ACCESS:   13273538  HIT:   10607124  MISS:    2666414
L1I WRITEBACK ACCESS:          0  HIT:          0  MISS:          0
L1I PREFETCH  REQUESTED:   14749844  ISSUED:   14749839  USEFUL:    1978695  USELESS:     687705
L1I AVERAGE MISS LATENCY: 16.3308 cycles
L2C TOTAL     ACCESS:    7204037  HIT:    5357814  MISS:    1846223
L2C LOAD      ACCESS:     571166  HIT:     240327  MISS:     330839
L2C RFO       ACCESS:     858714  HIT:      16766  MISS:     841948
L2C PREFETCH  ACCESS:    4651274  HIT:    3980066  MISS:     671208
L2C WRITEBACK ACCESS:    1122883  HIT:    1120655  MISS:       2228
L2C PREFETCH  REQUESTED:    3430370  ISSUED:    3429508  USEFUL:      23159  USELESS:     648434
L2C AVERAGE MISS LATENCY: 210.29 cycles
LLC TOTAL     ACCESS:    3884284  HIT:    2397346  MISS:    1486938
LLC LOAD      ACCESS:     330824  HIT:     173565  MISS:     157259
LLC RFO       ACCESS:     841948  HIT:     124239  MISS:     717709
LLC PREFETCH  ACCESS:    1648710  HIT:    1038461  MISS:     610249
LLC WRITEBACK ACCESS:    1062802  HIT:    1061081  MISS:       1721
LLC PREFETCH  REQUESTED:          0  ISSUED:          0  USEFUL:      43918  USELESS:     565686
LLC AVERAGE MISS LATENCY: 262.647 cycles
Major fault: 0 Minor fault: 24705
CPU 0 L1D next line prefetcher final stats

DRAM Statistics
 CHANNEL 0
 RQ ROW_BUFFER_HIT:     357088  ROW_BUFFER_MISS:    1128010
 DBUS_CONGESTED:    1419630
 WQ ROW_BUFFER_HIT:     271464  ROW_BUFFER_MISS:     603555  FULL:          0

 AVG_CONGESTED_CYCLE: 6

CPU 0 Branch Prediction Accuracy: 99.2833% MPKI: 1.20568 Average ROB Occupancy at Mispredict: 181.79

Branch types
NOT_BRANCH: 41588350 83.1767%
BRANCH_DIRECT_JUMP: 464501 0.929002%
BRANCH_INDIRECT: 45704 0.091408%
BRANCH_CONDITIONAL: 6147408 12.2948%
BRANCH_DIRECT_CALL: 675450 1.3509%
BRANCH_INDIRECT_CALL: 201532 0.403064%
BRANCH_RETURN: 876985 1.75397%
BRANCH_OTHER: 0 0%

