Initialize SIGNATURE TABLE
ST_SET: 1
ST_WAY: 256
ST_TAG_BIT: 16
ST_TAG_MASK: ffff

Initialize PATTERN TABLE
PT_SET: 512
PT_WAY: 4
SIG_DELTA_BIT: 7
C_SIG_BIT: 4
C_DELTA_BIT: 4

Initialize PREFETCH FILTER
FILTER_SET: 1024

*** ChampSim Multicore Out-of-Order Simulator ***

Warmup Instructions: 50000000
Simulation Instructions: 50000000
Number of CPUs: 1
LLC sets: 2048
LLC ways: 16
Off-chip DRAM Size: 4096 MB Channels: 1 Width: 64-bit Data Rate: 3200 MT/s

CPU 0 runs /home/ykhodke/ChampSim/dpc3_traces/server_004.champsimtrace.xz
LHT KB: 126.25
SCC KB: 1.56
Total KB: 127.81
CPU 0 L1D next line prefetcher
Heartbeat CPU 0 instructions: 10000002 cycles: 3230876 heartbeat IPC: 3.09514 cumulative IPC: 3.09514 (Simulation time: 0 hr 2 min 52 sec) 
Heartbeat CPU 0 instructions: 20000002 cycles: 6567522 heartbeat IPC: 2.99702 cumulative IPC: 3.04529 (Simulation time: 0 hr 5 min 39 sec) 
Heartbeat CPU 0 instructions: 30000000 cycles: 11685382 heartbeat IPC: 1.95394 cumulative IPC: 2.56731 (Simulation time: 0 hr 9 min 16 sec) 
Heartbeat CPU 0 instructions: 40000003 cycles: 15435484 heartbeat IPC: 2.66659 cumulative IPC: 2.59143 (Simulation time: 0 hr 12 min 45 sec) 
Heartbeat CPU 0 instructions: 50000003 cycles: 18664848 heartbeat IPC: 3.09659 cumulative IPC: 2.67883 (Simulation time: 0 hr 16 min 11 sec) 

Warmup complete CPU 0 instructions: 50000003 cycles: 18664848 (Simulation time: 0 hr 16 min 11 sec) 

Heartbeat CPU 0 instructions: 60000002 cycles: 27512481 heartbeat IPC: 1.13025 cumulative IPC: 1.13025 (Simulation time: 0 hr 19 min 2 sec) 
Heartbeat CPU 0 instructions: 70000000 cycles: 35742212 heartbeat IPC: 1.21511 cumulative IPC: 1.17114 (Simulation time: 0 hr 21 min 47 sec) 
Heartbeat CPU 0 instructions: 80000001 cycles: 56716575 heartbeat IPC: 0.476773 cumulative IPC: 0.7884 (Simulation time: 0 hr 25 min 54 sec) 
Heartbeat CPU 0 instructions: 90000003 cycles: 71631977 heartbeat IPC: 0.670448 cumulative IPC: 0.755185 (Simulation time: 0 hr 28 min 25 sec) 
Heartbeat CPU 0 instructions: 100000003 cycles: 80534856 heartbeat IPC: 1.12323 cumulative IPC: 0.808146 (Simulation time: 0 hr 29 min 28 sec) 
Finished CPU 0 instructions: 50000000 cycles: 61870008 cumulative IPC: 0.808146 (Simulation time: 0 hr 29 min 28 sec) 

ChampSim completed all CPUs

Region of Interest Statistics

CPU 0 cumulative IPC: 0.808146 instructions: 50000000 cycles: 61870008
L1D TOTAL     ACCESS:   21720310  HIT:   17649065  MISS:    4071245
L1D LOAD      ACCESS:    8641487  HIT:    6623831  MISS:    2017656
L1D RFO       ACCESS:    4647587  HIT:    4540616  MISS:     106971
L1D PREFETCH  ACCESS:    8431236  HIT:    6484618  MISS:    1946618
L1D WRITEBACK ACCESS:          0  HIT:          0  MISS:          0
L1D PREFETCH  REQUESTED:    8677513  ISSUED:    8587687  USEFUL:     106935  USELESS:    1839673
L1D AVERAGE MISS LATENCY: 22.9294 cycles
L1I TOTAL     ACCESS:   19324453  HIT:   17699089  MISS:    1625364
L1I LOAD      ACCESS:   10665501  HIT:   10332126  MISS:     333375
L1I RFO       ACCESS:          0  HIT:          0  MISS:          0
L1I PREFETCH  ACCESS:    8658952  HIT:    7366963  MISS:    1291989
L1I WRITEBACK ACCESS:          0  HIT:          0  MISS:          0
L1I PREFETCH  REQUESTED:   15537736  ISSUED:   15537736  USEFUL:     785685  USELESS:     506248
L1I AVERAGE MISS LATENCY: 27.219 cycles
L2C TOTAL     ACCESS:    7296211  HIT:    6223602  MISS:    1072609
L2C LOAD      ACCESS:    2047993  HIT:    1815891  MISS:     232102
L2C RFO       ACCESS:     105635  HIT:      57363  MISS:      48272
L2C PREFETCH  ACCESS:    4897546  HIT:    4106888  MISS:     790658
L2C WRITEBACK ACCESS:     245037  HIT:     243460  MISS:       1577
L2C PREFETCH  REQUESTED:    4977742  ISSUED:    4976632  USEFUL:      25081  USELESS:     765126
L2C AVERAGE MISS LATENCY: 58.7136 cycles
LLC TOTAL     ACCESS:    2242813  HIT:    2015786  MISS:     227027
LLC LOAD      ACCESS:     231636  HIT:     194869  MISS:      36767
LLC RFO       ACCESS:      48265  HIT:      33269  MISS:      14996
LLC PREFETCH  ACCESS:    1822576  HIT:    1647698  MISS:     174878
LLC WRITEBACK ACCESS:     140336  HIT:     139950  MISS:        386
LLC PREFETCH  REQUESTED:          0  ISSUED:          0  USEFUL:      12795  USELESS:     160886
LLC AVERAGE MISS LATENCY: 176.267 cycles
Major fault: 0 Minor fault: 7612
CPU 0 L1D next line prefetcher final stats

DRAM Statistics
 CHANNEL 0
 RQ ROW_BUFFER_HIT:      47836  ROW_BUFFER_MISS:     178789
 DBUS_CONGESTED:      99548
 WQ ROW_BUFFER_HIT:      10284  ROW_BUFFER_MISS:      43323  FULL:          0

 AVG_CONGESTED_CYCLE: 5

CPU 0 Branch Prediction Accuracy: 98.1603% MPKI: 3.89124 Average ROB Occupancy at Mispredict: 63.4014

Branch types
NOT_BRANCH: 39423761 78.8475%
BRANCH_DIRECT_JUMP: 551642 1.10328%
BRANCH_INDIRECT: 139368 0.278736%
BRANCH_CONDITIONAL: 7920860 15.8417%
BRANCH_DIRECT_CALL: 776072 1.55214%
BRANCH_INDIRECT_CALL: 194644 0.389288%
BRANCH_RETURN: 993311 1.98662%
BRANCH_OTHER: 0 0%

