Initialize SIGNATURE TABLE
ST_SET: 1
ST_WAY: 256
ST_TAG_BIT: 16
ST_TAG_MASK: ffff

Initialize PATTERN TABLE
PT_SET: 512
PT_WAY: 4
SIG_DELTA_BIT: 7
C_SIG_BIT: 4
C_DELTA_BIT: 4

Initialize PREFETCH FILTER
FILTER_SET: 1024

*** ChampSim Multicore Out-of-Order Simulator ***

Warmup Instructions: 50000000
Simulation Instructions: 50000000
Number of CPUs: 1
LLC sets: 2048
LLC ways: 16
Off-chip DRAM Size: 4096 MB Channels: 1 Width: 64-bit Data Rate: 3200 MT/s

CPU 0 runs /home/ykhodke/ChampSim/dpc3_traces/server_014.champsimtrace.xz
L1I D-JOLT instruction prefetcher has been constructed!
CPU 0 L1D next line prefetcher
Heartbeat CPU 0 instructions: 10000003 cycles: 3519581 heartbeat IPC: 2.84125 cumulative IPC: 2.84125 (Simulation time: 0 hr 3 min 27 sec) 
Heartbeat CPU 0 instructions: 20000000 cycles: 7106458 heartbeat IPC: 2.78794 cumulative IPC: 2.81434 (Simulation time: 0 hr 6 min 56 sec) 
Heartbeat CPU 0 instructions: 30000001 cycles: 10647975 heartbeat IPC: 2.82365 cumulative IPC: 2.81744 (Simulation time: 0 hr 10 min 28 sec) 
Heartbeat CPU 0 instructions: 40000003 cycles: 14196197 heartbeat IPC: 2.81831 cumulative IPC: 2.81766 (Simulation time: 0 hr 13 min 43 sec) 
Heartbeat CPU 0 instructions: 50000000 cycles: 17744871 heartbeat IPC: 2.81795 cumulative IPC: 2.81772 (Simulation time: 0 hr 16 min 47 sec) 

Warmup complete CPU 0 instructions: 50000001 cycles: 17744872 (Simulation time: 0 hr 16 min 47 sec) 

Heartbeat CPU 0 instructions: 60000000 cycles: 24032149 heartbeat IPC: 1.59051 cumulative IPC: 1.59051 (Simulation time: 0 hr 20 min 1 sec) 
Heartbeat CPU 0 instructions: 70000003 cycles: 30324938 heartbeat IPC: 1.58912 cumulative IPC: 1.58982 (Simulation time: 0 hr 23 min 8 sec) 
*** Reached end of trace for Core: 0 Repeating trace: /home/ykhodke/ChampSim/dpc3_traces/server_014.champsimtrace.xz
Heartbeat CPU 0 instructions: 80000001 cycles: 36898958 heartbeat IPC: 1.52114 cumulative IPC: 1.56625 (Simulation time: 0 hr 26 min 12 sec) 
Heartbeat CPU 0 instructions: 90000003 cycles: 44402678 heartbeat IPC: 1.33267 cumulative IPC: 1.5005 (Simulation time: 0 hr 29 min 3 sec) 
Heartbeat CPU 0 instructions: 100000001 cycles: 50888590 heartbeat IPC: 1.5418 cumulative IPC: 1.50858 (Simulation time: 0 hr 30 min 35 sec) 
Finished CPU 0 instructions: 50000000 cycles: 33143718 cumulative IPC: 1.50858 (Simulation time: 0 hr 30 min 35 sec) 

ChampSim completed all CPUs

Region of Interest Statistics

CPU 0 cumulative IPC: 1.50858 instructions: 50000000 cycles: 33143718
L1D TOTAL     ACCESS:   21629570  HIT:   21558706  MISS:      70864
L1D LOAD      ACCESS:    6674801  HIT:    6647894  MISS:      26907
L1D RFO       ACCESS:    8412832  HIT:    8380770  MISS:      32062
L1D PREFETCH  ACCESS:    6541937  HIT:    6530042  MISS:      11895
L1D WRITEBACK ACCESS:          0  HIT:          0  MISS:          0
L1D PREFETCH  REQUESTED:    6679191  ISSUED:    6569555  USEFUL:       3337  USELESS:       8558
L1D AVERAGE MISS LATENCY: 229.74 cycles
L1I TOTAL     ACCESS:   20892637  HIT:   15961608  MISS:    4931029
L1I LOAD      ACCESS:    9844964  HIT:    9805568  MISS:      39396
L1I RFO       ACCESS:          0  HIT:          0  MISS:          0
L1I PREFETCH  ACCESS:   11047673  HIT:    6156040  MISS:    4891633
L1I WRITEBACK ACCESS:          0  HIT:          0  MISS:          0
L1I PREFETCH  REQUESTED:   11747248  ISSUED:   11387957  USEFUL:    2983760  USELESS:    1907819
L1I AVERAGE MISS LATENCY: 14.886 cycles
L2C TOTAL     ACCESS:    6944187  HIT:    6872044  MISS:      72143
L2C LOAD      ACCESS:      59462  HIT:      40180  MISS:      19282
L2C RFO       ACCESS:      32020  HIT:       1054  MISS:      30966
L2C PREFETCH  ACCESS:    6814337  HIT:    6792468  MISS:      21869
L2C WRITEBACK ACCESS:      38368  HIT:      38342  MISS:         26
L2C PREFETCH  REQUESTED:    4893573  ISSUED:    4888233  USEFUL:       1710  USELESS:      20076
L2C AVERAGE MISS LATENCY: 257.836 cycles
LLC TOTAL     ACCESS:    1104621  HIT:    1038305  MISS:      66316
LLC LOAD      ACCESS:      18131  HIT:       5535  MISS:      12596
LLC RFO       ACCESS:      30966  HIT:       4491  MISS:      26475
LLC PREFETCH  ACCESS:    1020653  HIT:     993522  MISS:      27131
LLC WRITEBACK ACCESS:      34871  HIT:      34757  MISS:        114
LLC PREFETCH  REQUESTED:          0  ISSUED:          0  USEFUL:       4653  USELESS:      23402
LLC AVERAGE MISS LATENCY: 310.92 cycles
Major fault: 0 Minor fault: 1917
CPU 0 L1D next line prefetcher final stats

DRAM Statistics
 CHANNEL 0
 RQ ROW_BUFFER_HIT:      28755  ROW_BUFFER_MISS:      37441
 DBUS_CONGESTED:      65733
 WQ ROW_BUFFER_HIT:       8439  ROW_BUFFER_MISS:      24161  FULL:          0

 AVG_CONGESTED_CYCLE: 6

CPU 0 Branch Prediction Accuracy: 99.7719% MPKI: 0.38824 Average ROB Occupancy at Mispredict: 153.901

Branch types
NOT_BRANCH: 41489002 82.978%
BRANCH_DIRECT_JUMP: 449417 0.898834%
BRANCH_INDIRECT: 2330 0.00466%
BRANCH_CONDITIONAL: 5470015 10.94%
BRANCH_DIRECT_CALL: 1172188 2.34438%
BRANCH_INDIRECT_CALL: 122383 0.244766%
BRANCH_RETURN: 1294554 2.58911%
BRANCH_OTHER: 0 0%

