Initialize SIGNATURE TABLE
ST_SET: 1
ST_WAY: 256
ST_TAG_BIT: 16
ST_TAG_MASK: ffff

Initialize PATTERN TABLE
PT_SET: 512
PT_WAY: 4
SIG_DELTA_BIT: 7
C_SIG_BIT: 4
C_DELTA_BIT: 4

Initialize PREFETCH FILTER
FILTER_SET: 1024

*** ChampSim Multicore Out-of-Order Simulator ***

Warmup Instructions: 50000000
Simulation Instructions: 50000000
Number of CPUs: 1
LLC sets: 2048
LLC ways: 16
Off-chip DRAM Size: 4096 MB Channels: 1 Width: 64-bit Data Rate: 3200 MT/s

CPU 0 runs /home/ykhodke/ChampSim/dpc3_traces/server_001.champsimtrace.xz
L1I D-JOLT instruction prefetcher has been constructed!
CPU 0 L1D next line prefetcher
Heartbeat CPU 0 instructions: 10000002 cycles: 3154692 heartbeat IPC: 3.16988 cumulative IPC: 3.16988 (Simulation time: 0 hr 2 min 36 sec) 
Heartbeat CPU 0 instructions: 20000000 cycles: 6368882 heartbeat IPC: 3.1112 cumulative IPC: 3.14027 (Simulation time: 0 hr 5 min 14 sec) 
Heartbeat CPU 0 instructions: 30000003 cycles: 9554474 heartbeat IPC: 3.13913 cumulative IPC: 3.13989 (Simulation time: 0 hr 7 min 48 sec) 
Heartbeat CPU 0 instructions: 40000002 cycles: 12761372 heartbeat IPC: 3.11828 cumulative IPC: 3.13446 (Simulation time: 0 hr 10 min 19 sec) 
Heartbeat CPU 0 instructions: 50000003 cycles: 15979819 heartbeat IPC: 3.10709 cumulative IPC: 3.12895 (Simulation time: 0 hr 12 min 52 sec) 

Warmup complete CPU 0 instructions: 50000003 cycles: 15979819 (Simulation time: 0 hr 12 min 52 sec) 

Heartbeat CPU 0 instructions: 60000000 cycles: 23195794 heartbeat IPC: 1.38581 cumulative IPC: 1.38581 (Simulation time: 0 hr 15 min 29 sec) 
Heartbeat CPU 0 instructions: 70000002 cycles: 30061737 heartbeat IPC: 1.45646 cumulative IPC: 1.42026 (Simulation time: 0 hr 18 min 4 sec) 
Heartbeat CPU 0 instructions: 80000002 cycles: 36945115 heartbeat IPC: 1.45278 cumulative IPC: 1.43094 (Simulation time: 0 hr 20 min 41 sec) 
Heartbeat CPU 0 instructions: 90000002 cycles: 44212095 heartbeat IPC: 1.37609 cumulative IPC: 1.41682 (Simulation time: 0 hr 23 min 15 sec) 
Heartbeat CPU 0 instructions: 100000003 cycles: 51037077 heartbeat IPC: 1.46521 cumulative IPC: 1.42624 (Simulation time: 0 hr 25 min 31 sec) 
Finished CPU 0 instructions: 50000000 cycles: 35057258 cumulative IPC: 1.42624 (Simulation time: 0 hr 25 min 31 sec) 

ChampSim completed all CPUs

Region of Interest Statistics

CPU 0 cumulative IPC: 1.42624 instructions: 50000000 cycles: 35057258
L1D TOTAL     ACCESS:   17614284  HIT:   17103165  MISS:     511119
L1D LOAD      ACCESS:    6443411  HIT:    6238329  MISS:     205082
L1D RFO       ACCESS:    5053142  HIT:    4970428  MISS:      82714
L1D PREFETCH  ACCESS:    6117731  HIT:    5894408  MISS:     223323
L1D WRITEBACK ACCESS:          0  HIT:          0  MISS:          0
L1D PREFETCH  REQUESTED:    6472763  ISSUED:    6295276  USEFUL:     131608  USELESS:      91843
L1D AVERAGE MISS LATENCY: 94.9558 cycles
L1I TOTAL     ACCESS:   13813656  HIT:   12924829  MISS:     888827
L1I LOAD      ACCESS:    8247292  HIT:    8197201  MISS:      50091
L1I RFO       ACCESS:          0  HIT:          0  MISS:          0
L1I PREFETCH  ACCESS:    5566364  HIT:    4727628  MISS:     838736
L1I WRITEBACK ACCESS:          0  HIT:          0  MISS:          0
L1I PREFETCH  REQUESTED:    5783967  ISSUED:    5698477  USEFUL:     644426  USELESS:     194288
L1I AVERAGE MISS LATENCY: 31.7194 cycles
L2C TOTAL     ACCESS:    2179660  HIT:    1700773  MISS:     478887
L2C LOAD      ACCESS:     200611  HIT:      94420  MISS:     106191
L2C RFO       ACCESS:      80926  HIT:      10295  MISS:      70631
L2C PREFETCH  ACCESS:    1690256  HIT:    1388699  MISS:     301557
L2C WRITEBACK ACCESS:     207867  HIT:     207359  MISS:        508
L2C PREFETCH  REQUESTED:    1973481  ISSUED:    1971002  USEFUL:      26023  USELESS:     275581
L2C AVERAGE MISS LATENCY: 124.523 cycles
LLC TOTAL     ACCESS:    1212837  HIT:     867655  MISS:     345182
LLC LOAD      ACCESS:     106063  HIT:      71801  MISS:      34262
LLC RFO       ACCESS:      70628  HIT:       6747  MISS:      63881
LLC PREFETCH  ACCESS:     868295  HIT:     621568  MISS:     246727
LLC WRITEBACK ACCESS:     167851  HIT:     167539  MISS:        312
LLC PREFETCH  REQUESTED:          0  ISSUED:          0  USEFUL:      32784  USELESS:     210497
LLC AVERAGE MISS LATENCY: 229.812 cycles
Major fault: 0 Minor fault: 16709
CPU 0 L1D next line prefetcher final stats

DRAM Statistics
 CHANNEL 0
 RQ ROW_BUFFER_HIT:     105073  ROW_BUFFER_MISS:     239751
 DBUS_CONGESTED:     230462
 WQ ROW_BUFFER_HIT:      36720  ROW_BUFFER_MISS:     122874  FULL:          0

 AVG_CONGESTED_CYCLE: 6

CPU 0 Branch Prediction Accuracy: 99.5889% MPKI: 0.70108 Average ROB Occupancy at Mispredict: 111.199

Branch types
NOT_BRANCH: 41473569 82.9471%
BRANCH_DIRECT_JUMP: 347941 0.695882%
BRANCH_INDIRECT: 148212 0.296424%
BRANCH_CONDITIONAL: 6817276 13.6346%
BRANCH_DIRECT_CALL: 570724 1.14145%
BRANCH_INDIRECT_CALL: 25133 0.050266%
BRANCH_RETURN: 617123 1.23425%
BRANCH_OTHER: 0 0%

