Initialize SIGNATURE TABLE
ST_SET: 1
ST_WAY: 256
ST_TAG_BIT: 16
ST_TAG_MASK: ffff

Initialize PATTERN TABLE
PT_SET: 512
PT_WAY: 4
SIG_DELTA_BIT: 7
C_SIG_BIT: 4
C_DELTA_BIT: 4

Initialize PREFETCH FILTER
FILTER_SET: 1024

*** ChampSim Multicore Out-of-Order Simulator ***

Warmup Instructions: 50000000
Simulation Instructions: 50000000
Number of CPUs: 1
LLC sets: 2048
LLC ways: 16
Off-chip DRAM Size: 4096 MB Channels: 1 Width: 64-bit Data Rate: 3200 MT/s

CPU 0 runs /home/ykhodke/ChampSim/dpc3_traces/server_002.champsimtrace.xz
LHT KB: 63.12
SCC KB: 1.56
Total KB: 64.69
CPU 0 L1D next line prefetcher
Heartbeat CPU 0 instructions: 10000000 cycles: 3581239 heartbeat IPC: 2.79233 cumulative IPC: 2.79233 (Simulation time: 0 hr 2 min 50 sec) 
Heartbeat CPU 0 instructions: 20000002 cycles: 7170485 heartbeat IPC: 2.7861 cumulative IPC: 2.78921 (Simulation time: 0 hr 5 min 54 sec) 
Heartbeat CPU 0 instructions: 30000000 cycles: 10711252 heartbeat IPC: 2.82425 cumulative IPC: 2.80079 (Simulation time: 0 hr 8 min 59 sec) 
Heartbeat CPU 0 instructions: 40000000 cycles: 14261497 heartbeat IPC: 2.81671 cumulative IPC: 2.80475 (Simulation time: 0 hr 11 min 56 sec) 
Heartbeat CPU 0 instructions: 50000001 cycles: 17809268 heartbeat IPC: 2.81867 cumulative IPC: 2.80753 (Simulation time: 0 hr 15 min 13 sec) 

Warmup complete CPU 0 instructions: 50000001 cycles: 17809268 (Simulation time: 0 hr 15 min 13 sec) 

Heartbeat CPU 0 instructions: 60000000 cycles: 24247277 heartbeat IPC: 1.55328 cumulative IPC: 1.55328 (Simulation time: 0 hr 18 min 40 sec) 
Heartbeat CPU 0 instructions: 70000003 cycles: 30681959 heartbeat IPC: 1.55408 cumulative IPC: 1.55368 (Simulation time: 0 hr 22 min 0 sec) 
Heartbeat CPU 0 instructions: 80000003 cycles: 37119106 heartbeat IPC: 1.55348 cumulative IPC: 1.55361 (Simulation time: 0 hr 24 min 55 sec) 
Heartbeat CPU 0 instructions: 90000002 cycles: 43553561 heartbeat IPC: 1.55413 cumulative IPC: 1.55374 (Simulation time: 0 hr 27 min 31 sec) 
Heartbeat CPU 0 instructions: 100000003 cycles: 49987986 heartbeat IPC: 1.55414 cumulative IPC: 1.55382 (Simulation time: 0 hr 29 min 18 sec) 
Finished CPU 0 instructions: 50000002 cycles: 32178718 cumulative IPC: 1.55382 (Simulation time: 0 hr 29 min 18 sec) 

ChampSim completed all CPUs

Region of Interest Statistics

CPU 0 cumulative IPC: 1.55382 instructions: 50000002 cycles: 32178718
L1D TOTAL     ACCESS:   21525524  HIT:   21524715  MISS:        809
L1D LOAD      ACCESS:    6602458  HIT:    6602082  MISS:        376
L1D RFO       ACCESS:    8433025  HIT:    8432913  MISS:        112
L1D PREFETCH  ACCESS:    6490041  HIT:    6489720  MISS:        321
L1D WRITEBACK ACCESS:          0  HIT:          0  MISS:          0
L1D PREFETCH  REQUESTED:    6602511  ISSUED:    6497426  USEFUL:         91  USELESS:        231
L1D AVERAGE MISS LATENCY: 34.2732 cycles
L1I TOTAL     ACCESS:   27633674  HIT:   26800747  MISS:     832927
L1I LOAD      ACCESS:    9827883  HIT:    9752858  MISS:      75025
L1I RFO       ACCESS:          0  HIT:          0  MISS:          0
L1I PREFETCH  ACCESS:   17805791  HIT:   17047889  MISS:     757902
L1I WRITEBACK ACCESS:          0  HIT:          0  MISS:          0
L1I PREFETCH  REQUESTED:   19546675  ISSUED:   19546675  USEFUL:     654534  USELESS:     103359
L1I AVERAGE MISS LATENCY: 12.824 cycles
L2C TOTAL     ACCESS:     981924  HIT:     981628  MISS:        296
L2C LOAD      ACCESS:       2631  HIT:       2556  MISS:         75
L2C RFO       ACCESS:        112  HIT:        107  MISS:          5
L2C PREFETCH  ACCESS:     978845  HIT:     978629  MISS:        216
L2C WRITEBACK ACCESS:        336  HIT:        336  MISS:          0
L2C PREFETCH  REQUESTED:     225861  ISSUED:     225861  USEFUL:         51  USELESS:        129
L2C AVERAGE MISS LATENCY: 81.3007 cycles
LLC TOTAL     ACCESS:      52461  HIT:      52003  MISS:        458
LLC LOAD      ACCESS:         75  HIT:         60  MISS:         15
LLC RFO       ACCESS:          5  HIT:          3  MISS:          2
LLC PREFETCH  ACCESS:      52288  HIT:      51849  MISS:        439
LLC WRITEBACK ACCESS:         93  HIT:         91  MISS:          2
LLC PREFETCH  REQUESTED:          0  ISSUED:          0  USEFUL:          7  USELESS:        147
LLC AVERAGE MISS LATENCY: 187.144 cycles
Major fault: 0 Minor fault: 1880
CPU 0 L1D next line prefetcher final stats

DRAM Statistics
 CHANNEL 0
 RQ ROW_BUFFER_HIT:         44  ROW_BUFFER_MISS:        412
 DBUS_CONGESTED:        152
 WQ ROW_BUFFER_HIT:         46  ROW_BUFFER_MISS:        240  FULL:          0

 AVG_CONGESTED_CYCLE: 6

CPU 0 Branch Prediction Accuracy: 99.8789% MPKI: 0.20388 Average ROB Occupancy at Mispredict: 275.647

Branch types
NOT_BRANCH: 41580695 83.1614%
BRANCH_DIRECT_JUMP: 461630 0.92326%
BRANCH_INDIRECT: 0 0%
BRANCH_CONDITIONAL: 5376437 10.7529%
BRANCH_DIRECT_CALL: 1175775 2.35155%
BRANCH_INDIRECT_CALL: 114840 0.22968%
BRANCH_RETURN: 1290625 2.58125%
BRANCH_OTHER: 0 0%

