Initialize SIGNATURE TABLE
ST_SET: 1
ST_WAY: 256
ST_TAG_BIT: 16
ST_TAG_MASK: ffff

Initialize PATTERN TABLE
PT_SET: 512
PT_WAY: 4
SIG_DELTA_BIT: 7
C_SIG_BIT: 4
C_DELTA_BIT: 4

Initialize PREFETCH FILTER
FILTER_SET: 1024

*** ChampSim Multicore Out-of-Order Simulator ***

Warmup Instructions: 50000000
Simulation Instructions: 50000000
Number of CPUs: 1
LLC sets: 2048
LLC ways: 16
Off-chip DRAM Size: 4096 MB Channels: 1 Width: 64-bit Data Rate: 3200 MT/s

CPU 0 runs /home/ykhodke/ChampSim/dpc3_traces/server_025.champsimtrace.xz
L1I D-JOLT instruction prefetcher has been constructed!
CPU 0 L1D next line prefetcher
Heartbeat CPU 0 instructions: 10000003 cycles: 3524553 heartbeat IPC: 2.83724 cumulative IPC: 2.83724 (Simulation time: 0 hr 3 min 23 sec) 
Heartbeat CPU 0 instructions: 20000000 cycles: 7056328 heartbeat IPC: 2.83144 cumulative IPC: 2.83434 (Simulation time: 0 hr 6 min 48 sec) 
Heartbeat CPU 0 instructions: 30000001 cycles: 10579892 heartbeat IPC: 2.83804 cumulative IPC: 2.83557 (Simulation time: 0 hr 9 min 50 sec) 
Heartbeat CPU 0 instructions: 40000003 cycles: 14110074 heartbeat IPC: 2.83272 cumulative IPC: 2.83485 (Simulation time: 0 hr 13 min 3 sec) 
Heartbeat CPU 0 instructions: 50000001 cycles: 17637846 heartbeat IPC: 2.83465 cumulative IPC: 2.83481 (Simulation time: 0 hr 16 min 51 sec) 

Warmup complete CPU 0 instructions: 50000001 cycles: 17637846 (Simulation time: 0 hr 16 min 51 sec) 

Heartbeat CPU 0 instructions: 60000002 cycles: 24421189 heartbeat IPC: 1.4742 cumulative IPC: 1.4742 (Simulation time: 0 hr 20 min 33 sec) 
Heartbeat CPU 0 instructions: 70000000 cycles: 31306992 heartbeat IPC: 1.45226 cumulative IPC: 1.46315 (Simulation time: 0 hr 23 min 50 sec) 
Heartbeat CPU 0 instructions: 80000002 cycles: 38115007 heartbeat IPC: 1.46886 cumulative IPC: 1.46505 (Simulation time: 0 hr 26 min 47 sec) 
Heartbeat CPU 0 instructions: 90000001 cycles: 44591130 heartbeat IPC: 1.54413 cumulative IPC: 1.48405 (Simulation time: 0 hr 28 min 42 sec) 
Heartbeat CPU 0 instructions: 100000003 cycles: 50786910 heartbeat IPC: 1.614 cumulative IPC: 1.50834 (Simulation time: 0 hr 29 min 35 sec) 
Finished CPU 0 instructions: 50000002 cycles: 33149064 cumulative IPC: 1.50834 (Simulation time: 0 hr 29 min 35 sec) 

ChampSim completed all CPUs

Region of Interest Statistics

CPU 0 cumulative IPC: 1.50834 instructions: 50000002 cycles: 33149064
L1D TOTAL     ACCESS:   19968447  HIT:   18543016  MISS:    1425431
L1D LOAD      ACCESS:    6950370  HIT:    6331400  MISS:     618970
L1D RFO       ACCESS:    6378808  HIT:    6130647  MISS:     248161
L1D PREFETCH  ACCESS:    6639269  HIT:    6080969  MISS:     558300
L1D WRITEBACK ACCESS:          0  HIT:          0  MISS:          0
L1D PREFETCH  REQUESTED:    6990501  ISSUED:    6815239  USEFUL:     131018  USELESS:     427276
L1D AVERAGE MISS LATENCY: 23.2153 cycles
L1I TOTAL     ACCESS:   15816316  HIT:   12974802  MISS:    2841514
L1I LOAD      ACCESS:    9502371  HIT:    9453495  MISS:      48876
L1I RFO       ACCESS:          0  HIT:          0  MISS:          0
L1I PREFETCH  ACCESS:    6313945  HIT:    3521307  MISS:    2792638
L1I WRITEBACK ACCESS:          0  HIT:          0  MISS:          0
L1I PREFETCH  REQUESTED:    6687202  ISSUED:    6626040  USEFUL:    2427272  USELESS:     365354
L1I AVERAGE MISS LATENCY: 19.653 cycles
L2C TOTAL     ACCESS:    5947104  HIT:    5217317  MISS:     729787
L2C LOAD      ACCESS:     633084  HIT:     515200  MISS:     117884
L2C RFO       ACCESS:     246706  HIT:     172575  MISS:      74131
L2C PREFETCH  ACCESS:    4570513  HIT:    4035629  MISS:     534884
L2C WRITEBACK ACCESS:     496801  HIT:     493913  MISS:       2888
L2C PREFETCH  REQUESTED:    4126982  ISSUED:    4121397  USEFUL:       9156  USELESS:     525559
L2C AVERAGE MISS LATENCY: 37.6495 cycles
LLC TOTAL     ACCESS:    1982159  HIT:    1953251  MISS:      28908
LLC LOAD      ACCESS:     117795  HIT:     114558  MISS:       3237
LLC RFO       ACCESS:      74126  HIT:      63299  MISS:      10827
LLC PREFETCH  ACCESS:    1660891  HIT:    1646253  MISS:      14638
LLC WRITEBACK ACCESS:     129347  HIT:     129141  MISS:        206
LLC PREFETCH  REQUESTED:          0  ISSUED:          0  USEFUL:       1043  USELESS:      13266
LLC AVERAGE MISS LATENCY: 180.673 cycles
Major fault: 0 Minor fault: 2464
CPU 0 L1D next line prefetcher final stats

DRAM Statistics
 CHANNEL 0
 RQ ROW_BUFFER_HIT:       9366  ROW_BUFFER_MISS:      19332
 DBUS_CONGESTED:      18495
 WQ ROW_BUFFER_HIT:       1307  ROW_BUFFER_MISS:      11542  FULL:          0

 AVG_CONGESTED_CYCLE: 6

CPU 0 Branch Prediction Accuracy: 99.8142% MPKI: 0.34676 Average ROB Occupancy at Mispredict: 202.396

Branch types
NOT_BRANCH: 40668920 81.3378%
BRANCH_DIRECT_JUMP: 531701 1.0634%
BRANCH_INDIRECT: 199025 0.39805%
BRANCH_CONDITIONAL: 6211500 12.423%
BRANCH_DIRECT_CALL: 1010912 2.02182%
BRANCH_INDIRECT_CALL: 183501 0.367002%
BRANCH_RETURN: 1194416 2.38883%
BRANCH_OTHER: 0 0%

