Initialize SIGNATURE TABLE
ST_SET: 1
ST_WAY: 256
ST_TAG_BIT: 16
ST_TAG_MASK: ffff

Initialize PATTERN TABLE
PT_SET: 512
PT_WAY: 4
SIG_DELTA_BIT: 7
C_SIG_BIT: 4
C_DELTA_BIT: 4

Initialize PREFETCH FILTER
FILTER_SET: 1024

*** ChampSim Multicore Out-of-Order Simulator ***

Warmup Instructions: 50000000
Simulation Instructions: 50000000
Number of CPUs: 1
LLC sets: 2048
LLC ways: 16
Off-chip DRAM Size: 4096 MB Channels: 1 Width: 64-bit Data Rate: 3200 MT/s

CPU 0 runs /home/ykhodke/ChampSim/dpc3_traces/server_011.champsimtrace.xz
LHT KB: 63.12
SCC KB: 1.56
Total KB: 64.69
CPU 0 L1D next line prefetcher
Heartbeat CPU 0 instructions: 10000002 cycles: 3210962 heartbeat IPC: 3.11433 cumulative IPC: 3.11433 (Simulation time: 0 hr 2 min 43 sec) 
Heartbeat CPU 0 instructions: 20000001 cycles: 6428122 heartbeat IPC: 3.10833 cumulative IPC: 3.11133 (Simulation time: 0 hr 5 min 24 sec) 
Heartbeat CPU 0 instructions: 30000001 cycles: 9688417 heartbeat IPC: 3.06721 cumulative IPC: 3.09648 (Simulation time: 0 hr 8 min 6 sec) 
Heartbeat CPU 0 instructions: 40000003 cycles: 12896284 heartbeat IPC: 3.11734 cumulative IPC: 3.10167 (Simulation time: 0 hr 10 min 55 sec) 
Heartbeat CPU 0 instructions: 50000000 cycles: 16110593 heartbeat IPC: 3.11109 cumulative IPC: 3.10355 (Simulation time: 0 hr 13 min 50 sec) 

Warmup complete CPU 0 instructions: 50000004 cycles: 16110594 (Simulation time: 0 hr 13 min 50 sec) 

Heartbeat CPU 0 instructions: 60000002 cycles: 24332011 heartbeat IPC: 1.21634 cumulative IPC: 1.21634 (Simulation time: 0 hr 16 min 44 sec) 
Heartbeat CPU 0 instructions: 70000000 cycles: 32922659 heartbeat IPC: 1.16406 cumulative IPC: 1.18962 (Simulation time: 0 hr 19 min 39 sec) 
Heartbeat CPU 0 instructions: 80000003 cycles: 41805660 heartbeat IPC: 1.12575 cumulative IPC: 1.16754 (Simulation time: 0 hr 22 min 10 sec) 
Heartbeat CPU 0 instructions: 90000001 cycles: 50306662 heartbeat IPC: 1.17633 cumulative IPC: 1.16973 (Simulation time: 0 hr 24 min 40 sec) 
Heartbeat CPU 0 instructions: 100000000 cycles: 58575633 heartbeat IPC: 1.20934 cumulative IPC: 1.17744 (Simulation time: 0 hr 27 min 8 sec) 
Finished CPU 0 instructions: 50000003 cycles: 42465051 cumulative IPC: 1.17744 (Simulation time: 0 hr 27 min 8 sec) 

ChampSim completed all CPUs

Region of Interest Statistics

CPU 0 cumulative IPC: 1.17744 instructions: 50000003 cycles: 42465051
L1D TOTAL     ACCESS:   18377990  HIT:   17346534  MISS:    1031456
L1D LOAD      ACCESS:    6889586  HIT:    6409800  MISS:     479786
L1D RFO       ACCESS:    4838568  HIT:    4756318  MISS:      82250
L1D PREFETCH  ACCESS:    6649836  HIT:    6180416  MISS:     469420
L1D WRITEBACK ACCESS:          0  HIT:          0  MISS:          0
L1D PREFETCH  REQUESTED:    6929081  ISSUED:    6834623  USEFUL:     138941  USELESS:     330475
L1D AVERAGE MISS LATENCY: 43.8099 cycles
L1I TOTAL     ACCESS:   18317684  HIT:   16034241  MISS:    2283443
L1I LOAD      ACCESS:    8816877  HIT:    8395437  MISS:     421440
L1I RFO       ACCESS:          0  HIT:          0  MISS:          0
L1I PREFETCH  ACCESS:    9500807  HIT:    7638804  MISS:    1862003
L1I WRITEBACK ACCESS:          0  HIT:          0  MISS:          0
L1I PREFETCH  REQUESTED:   16226599  ISSUED:   16226599  USEFUL:     914983  USELESS:     947012
L1I AVERAGE MISS LATENCY: 27.5796 cycles
L2C TOTAL     ACCESS:    4414773  HIT:    3060052  MISS:    1354721
L2C LOAD      ACCESS:     546050  HIT:     273741  MISS:     272309
L2C RFO       ACCESS:      80296  HIT:      30885  MISS:      49411
L2C PREFETCH  ACCESS:    3520314  HIT:    2489524  MISS:    1030790
L2C WRITEBACK ACCESS:     268113  HIT:     265902  MISS:       2211
L2C PREFETCH  REQUESTED:    3032142  ISSUED:    3028968  USEFUL:      36127  USELESS:     994253
L2C AVERAGE MISS LATENCY: 55.344 cycles
LLC TOTAL     ACCESS:    2272427  HIT:    2026175  MISS:     246252
LLC LOAD      ACCESS:     272210  HIT:     239391  MISS:      32819
LLC RFO       ACCESS:      49394  HIT:      33165  MISS:      16229
LLC PREFETCH  ACCESS:    1785899  HIT:    1589002  MISS:     196897
LLC WRITEBACK ACCESS:     164924  HIT:     164617  MISS:        307
LLC PREFETCH  REQUESTED:          0  ISSUED:          0  USEFUL:      14573  USELESS:     180044
LLC AVERAGE MISS LATENCY: 175.742 cycles
Major fault: 0 Minor fault: 7004
CPU 0 L1D next line prefetcher final stats

DRAM Statistics
 CHANNEL 0
 RQ ROW_BUFFER_HIT:      49802  ROW_BUFFER_MISS:     196115
 DBUS_CONGESTED:     110101
 WQ ROW_BUFFER_HIT:      13338  ROW_BUFFER_MISS:      53416  FULL:          0

 AVG_CONGESTED_CYCLE: 5

CPU 0 Branch Prediction Accuracy: 97.5565% MPKI: 4.59006 Average ROB Occupancy at Mispredict: 58.0864

Branch types
NOT_BRANCH: 40607199 81.2144%
BRANCH_DIRECT_JUMP: 451601 0.903202%
BRANCH_INDIRECT: 151580 0.30316%
BRANCH_CONDITIONAL: 7041635 14.0833%
BRANCH_DIRECT_CALL: 647827 1.29565%
BRANCH_INDIRECT_CALL: 211373 0.422746%
BRANCH_RETURN: 888439 1.77688%
BRANCH_OTHER: 0 0%

