Initialize SIGNATURE TABLE
ST_SET: 1
ST_WAY: 256
ST_TAG_BIT: 16
ST_TAG_MASK: ffff

Initialize PATTERN TABLE
PT_SET: 512
PT_WAY: 4
SIG_DELTA_BIT: 7
C_SIG_BIT: 4
C_DELTA_BIT: 4

Initialize PREFETCH FILTER
FILTER_SET: 1024

*** ChampSim Multicore Out-of-Order Simulator ***

Warmup Instructions: 50000000
Simulation Instructions: 50000000
Number of CPUs: 1
LLC sets: 2048
LLC ways: 16
Off-chip DRAM Size: 4096 MB Channels: 1 Width: 64-bit Data Rate: 3200 MT/s

CPU 0 runs /home/ykhodke/ChampSim/dpc3_traces/server_034.champsimtrace.xz
CPU 0 EPI prefetcher
CPU 0 L1D next line prefetcher
Heartbeat CPU 0 instructions: 10000000 cycles: 3331154 heartbeat IPC: 3.00196 cumulative IPC: 3.00196 (Simulation time: 0 hr 3 min 34 sec) 
Heartbeat CPU 0 instructions: 20000002 cycles: 6655064 heartbeat IPC: 3.00851 cumulative IPC: 3.00523 (Simulation time: 0 hr 7 min 1 sec) 
Heartbeat CPU 0 instructions: 30000003 cycles: 9987023 heartbeat IPC: 3.00124 cumulative IPC: 3.0039 (Simulation time: 0 hr 10 min 26 sec) 
Heartbeat CPU 0 instructions: 40000001 cycles: 13317211 heartbeat IPC: 3.00283 cumulative IPC: 3.00363 (Simulation time: 0 hr 13 min 45 sec) 
Heartbeat CPU 0 instructions: 50000000 cycles: 16646611 heartbeat IPC: 3.00354 cumulative IPC: 3.00361 (Simulation time: 0 hr 17 min 0 sec) 

Warmup complete CPU 0 instructions: 50000002 cycles: 16646612 (Simulation time: 0 hr 17 min 0 sec) 

Heartbeat CPU 0 instructions: 60000002 cycles: 22607435 heartbeat IPC: 1.67762 cumulative IPC: 1.67762 (Simulation time: 0 hr 20 min 27 sec) 
Heartbeat CPU 0 instructions: 70000003 cycles: 28999366 heartbeat IPC: 1.56447 cumulative IPC: 1.61907 (Simulation time: 0 hr 23 min 49 sec) 
Heartbeat CPU 0 instructions: 80000002 cycles: 35045915 heartbeat IPC: 1.65384 cumulative IPC: 1.6305 (Simulation time: 0 hr 27 min 12 sec) 
Heartbeat CPU 0 instructions: 90000002 cycles: 41093082 heartbeat IPC: 1.65367 cumulative IPC: 1.63623 (Simulation time: 0 hr 30 min 31 sec) 
Heartbeat CPU 0 instructions: 100000002 cycles: 47104578 heartbeat IPC: 1.66348 cumulative IPC: 1.64161 (Simulation time: 0 hr 33 min 9 sec) 
Finished CPU 0 instructions: 50000000 cycles: 30457966 cumulative IPC: 1.64161 (Simulation time: 0 hr 33 min 9 sec) 

ChampSim completed all CPUs

Region of Interest Statistics

CPU 0 cumulative IPC: 1.64161 instructions: 50000000 cycles: 30457966
L1D TOTAL     ACCESS:   18230860  HIT:   16806793  MISS:    1424067
L1D LOAD      ACCESS:    6125178  HIT:    5468876  MISS:     656302
L1D RFO       ACCESS:    6163389  HIT:    6020816  MISS:     142573
L1D PREFETCH  ACCESS:    5942293  HIT:    5317101  MISS:     625192
L1D WRITEBACK ACCESS:          0  HIT:          0  MISS:          0
L1D PREFETCH  REQUESTED:    6159196  ISSUED:    6069388  USEFUL:     140773  USELESS:     484388
L1D AVERAGE MISS LATENCY: 17.9643 cycles
L1I TOTAL     ACCESS:   30130445  HIT:   26325249  MISS:    3805196
L1I LOAD      ACCESS:    9669871  HIT:    9635886  MISS:      33985
L1I RFO       ACCESS:          0  HIT:          0  MISS:          0
L1I PREFETCH  ACCESS:   20460574  HIT:   16689363  MISS:    3771211
L1I WRITEBACK ACCESS:          0  HIT:          0  MISS:          0
L1I PREFETCH  REQUESTED:   24920923  ISSUED:   24920923  USEFUL:    3308894  USELESS:     462317
L1I AVERAGE MISS LATENCY: 15.4436 cycles
L2C TOTAL     ACCESS:    7141729  HIT:    6995305  MISS:     146424
L2C LOAD      ACCESS:     670159  HIT:     626760  MISS:      43399
L2C RFO       ACCESS:     140756  HIT:     132195  MISS:       8561
L2C PREFETCH  ACCESS:    5980049  HIT:    5886467  MISS:      93582
L2C WRITEBACK ACCESS:     350765  HIT:     349883  MISS:        882
L2C PREFETCH  REQUESTED:    6256725  ISSUED:    6242826  USEFUL:       3003  USELESS:      89571
L2C AVERAGE MISS LATENCY: 41.2689 cycles
LLC TOTAL     ACCESS:    1768831  HIT:    1752560  MISS:      16271
LLC LOAD      ACCESS:      43302  HIT:      40102  MISS:       3200
LLC RFO       ACCESS:       8560  HIT:       8168  MISS:        392
LLC PREFETCH  ACCESS:    1676018  HIT:    1663463  MISS:      12555
LLC WRITEBACK ACCESS:      40951  HIT:      40827  MISS:        124
LLC PREFETCH  REQUESTED:          0  ISSUED:          0  USEFUL:       3434  USELESS:       7927
LLC AVERAGE MISS LATENCY: 163.568 cycles
Major fault: 0 Minor fault: 1171
CPU 0 L1I EPI prefetcher final stats
CPU 0 L1D next line prefetcher final stats

DRAM Statistics
 CHANNEL 0
 RQ ROW_BUFFER_HIT:       3848  ROW_BUFFER_MISS:      12298
 DBUS_CONGESTED:       7371
 WQ ROW_BUFFER_HIT:       1339  ROW_BUFFER_MISS:       3628  FULL:          0

 AVG_CONGESTED_CYCLE: 5

CPU 0 Branch Prediction Accuracy: 99.926% MPKI: 0.14472 Average ROB Occupancy at Mispredict: 265.317

Branch types
NOT_BRANCH: 40221098 80.4422%
BRANCH_DIRECT_JUMP: 771319 1.54264%
BRANCH_INDIRECT: 108663 0.217326%
BRANCH_CONDITIONAL: 6375047 12.7501%
BRANCH_DIRECT_CALL: 1049638 2.09928%
BRANCH_INDIRECT_CALL: 212283 0.424566%
BRANCH_RETURN: 1261926 2.52385%
BRANCH_OTHER: 0 0%

