Initialize SIGNATURE TABLE
ST_SET: 1
ST_WAY: 256
ST_TAG_BIT: 16
ST_TAG_MASK: ffff

Initialize PATTERN TABLE
PT_SET: 512
PT_WAY: 4
SIG_DELTA_BIT: 7
C_SIG_BIT: 4
C_DELTA_BIT: 4

Initialize PREFETCH FILTER
FILTER_SET: 1024

*** ChampSim Multicore Out-of-Order Simulator ***

Warmup Instructions: 50000000
Simulation Instructions: 50000000
Number of CPUs: 1
LLC sets: 2048
LLC ways: 16
Off-chip DRAM Size: 4096 MB Channels: 1 Width: 64-bit Data Rate: 3200 MT/s

CPU 0 runs /home/ykhodke/ChampSim/dpc3_traces/server_003.champsimtrace.xz
LHT KB: 126.25
SCC KB: 1.56
Total KB: 127.81
CPU 0 L1D next line prefetcher
Heartbeat CPU 0 instructions: 10000002 cycles: 3224976 heartbeat IPC: 3.1008 cumulative IPC: 3.1008 (Simulation time: 0 hr 3 min 26 sec) 
Heartbeat CPU 0 instructions: 20000000 cycles: 6545738 heartbeat IPC: 3.01136 cumulative IPC: 3.05542 (Simulation time: 0 hr 6 min 16 sec) 
Heartbeat CPU 0 instructions: 30000000 cycles: 9758403 heartbeat IPC: 3.11268 cumulative IPC: 3.07427 (Simulation time: 0 hr 8 min 58 sec) 
Heartbeat CPU 0 instructions: 40000001 cycles: 13174773 heartbeat IPC: 2.92708 cumulative IPC: 3.03611 (Simulation time: 0 hr 12 min 5 sec) 
Heartbeat CPU 0 instructions: 50000002 cycles: 16893486 heartbeat IPC: 2.6891 cumulative IPC: 2.95972 (Simulation time: 0 hr 14 min 54 sec) 

Warmup complete CPU 0 instructions: 50000002 cycles: 16893486 (Simulation time: 0 hr 14 min 54 sec) 

Heartbeat CPU 0 instructions: 60000000 cycles: 25904733 heartbeat IPC: 1.10972 cumulative IPC: 1.10972 (Simulation time: 0 hr 17 min 42 sec) 
Heartbeat CPU 0 instructions: 70000003 cycles: 34962215 heartbeat IPC: 1.10406 cumulative IPC: 1.10688 (Simulation time: 0 hr 20 min 12 sec) 
Heartbeat CPU 0 instructions: 80000000 cycles: 45188268 heartbeat IPC: 0.977894 cumulative IPC: 1.06027 (Simulation time: 0 hr 22 min 49 sec) 
Heartbeat CPU 0 instructions: 90000003 cycles: 55455922 heartbeat IPC: 0.973933 cumulative IPC: 1.03728 (Simulation time: 0 hr 25 min 39 sec) 
Heartbeat CPU 0 instructions: 100000001 cycles: 66371807 heartbeat IPC: 0.916096 cumulative IPC: 1.01054 (Simulation time: 0 hr 28 min 4 sec) 
Finished CPU 0 instructions: 50000003 cycles: 49478322 cumulative IPC: 1.01054 (Simulation time: 0 hr 28 min 4 sec) 

ChampSim completed all CPUs

Region of Interest Statistics

CPU 0 cumulative IPC: 1.01054 instructions: 50000003 cycles: 49478322
L1D TOTAL     ACCESS:   20045754  HIT:   18904556  MISS:    1141198
L1D LOAD      ACCESS:    7875622  HIT:    7346386  MISS:     529236
L1D RFO       ACCESS:    4554784  HIT:    4437356  MISS:     117428
L1D PREFETCH  ACCESS:    7615348  HIT:    7120814  MISS:     494534
L1D WRITEBACK ACCESS:          0  HIT:          0  MISS:          0
L1D PREFETCH  REQUESTED:    7936063  ISSUED:    7844197  USEFUL:     156220  USELESS:     338273
L1D AVERAGE MISS LATENCY: 54.6476 cycles
L1I TOTAL     ACCESS:   17822561  HIT:   16371216  MISS:    1451345
L1I LOAD      ACCESS:    9285249  HIT:    8995671  MISS:     289578
L1I RFO       ACCESS:          0  HIT:          0  MISS:          0
L1I PREFETCH  ACCESS:    8537312  HIT:    7375545  MISS:    1161767
L1I WRITEBACK ACCESS:          0  HIT:          0  MISS:          0
L1I PREFETCH  REQUESTED:   17020869  ISSUED:   17020869  USEFUL:     675515  USELESS:     486215
L1I AVERAGE MISS LATENCY: 30.1246 cycles
L2C TOTAL     ACCESS:    3534183  HIT:    2526850  MISS:    1007333
L2C LOAD      ACCESS:     551499  HIT:     311978  MISS:     239521
L2C RFO       ACCESS:     114658  HIT:      40180  MISS:      74478
L2C PREFETCH  ACCESS:    2583738  HIT:    1891436  MISS:     692302
L2C WRITEBACK ACCESS:     284288  HIT:     283256  MISS:       1032
L2C PREFETCH  REQUESTED:    2173929  ISSUED:    2172482  USEFUL:      27722  USELESS:     662208
L2C AVERAGE MISS LATENCY: 80.3891 cycles
LLC TOTAL     ACCESS:    1799573  HIT:    1437842  MISS:     361731
LLC LOAD      ACCESS:     239358  HIT:     176840  MISS:      62518
LLC RFO       ACCESS:      74475  HIT:      32404  MISS:      42071
LLC PREFETCH  ACCESS:    1319256  HIT:    1063254  MISS:     256002
LLC WRITEBACK ACCESS:     166484  HIT:     165344  MISS:       1140
LLC PREFETCH  REQUESTED:          0  ISSUED:          0  USEFUL:      23897  USELESS:     222525
LLC AVERAGE MISS LATENCY: 188.747 cycles
Major fault: 0 Minor fault: 7792
CPU 0 L1D next line prefetcher final stats

DRAM Statistics
 CHANNEL 0
 RQ ROW_BUFFER_HIT:      81260  ROW_BUFFER_MISS:     279284
 DBUS_CONGESTED:     185178
 WQ ROW_BUFFER_HIT:      22195  ROW_BUFFER_MISS:      78818  FULL:          0

 AVG_CONGESTED_CYCLE: 5

CPU 0 Branch Prediction Accuracy: 95.439% MPKI: 9.02702 Average ROB Occupancy at Mispredict: 65.6263

Branch types
NOT_BRANCH: 40104089 80.2082%
BRANCH_DIRECT_JUMP: 497928 0.995856%
BRANCH_INDIRECT: 130587 0.261174%
BRANCH_CONDITIONAL: 7219018 14.438%
BRANCH_DIRECT_CALL: 625807 1.25161%
BRANCH_INDIRECT_CALL: 389787 0.779574%
BRANCH_RETURN: 1032747 2.06549%
BRANCH_OTHER: 0 0%

