Initialize SIGNATURE TABLE
ST_SET: 1
ST_WAY: 256
ST_TAG_BIT: 16
ST_TAG_MASK: ffff

Initialize PATTERN TABLE
PT_SET: 512
PT_WAY: 4
SIG_DELTA_BIT: 7
C_SIG_BIT: 4
C_DELTA_BIT: 4

Initialize PREFETCH FILTER
FILTER_SET: 1024

*** ChampSim Multicore Out-of-Order Simulator ***

Warmup Instructions: 50000000
Simulation Instructions: 50000000
Number of CPUs: 1
LLC sets: 2048
LLC ways: 16
Off-chip DRAM Size: 4096 MB Channels: 1 Width: 64-bit Data Rate: 3200 MT/s

CPU 0 runs /home/ykhodke/ChampSim/dpc3_traces/server_015.champsimtrace.xz
L1I D-JOLT instruction prefetcher has been constructed!
CPU 0 L1D next line prefetcher
Heartbeat CPU 0 instructions: 10000002 cycles: 3519410 heartbeat IPC: 2.84139 cumulative IPC: 2.84139 (Simulation time: 0 hr 3 min 3 sec) 
Heartbeat CPU 0 instructions: 20000001 cycles: 7107063 heartbeat IPC: 2.78734 cumulative IPC: 2.8141 (Simulation time: 0 hr 6 min 26 sec) 
Heartbeat CPU 0 instructions: 30000001 cycles: 10646045 heartbeat IPC: 2.82567 cumulative IPC: 2.81795 (Simulation time: 0 hr 9 min 58 sec) 
Heartbeat CPU 0 instructions: 40000002 cycles: 14194086 heartbeat IPC: 2.81846 cumulative IPC: 2.81808 (Simulation time: 0 hr 13 min 59 sec) 
Heartbeat CPU 0 instructions: 50000002 cycles: 17742346 heartbeat IPC: 2.81828 cumulative IPC: 2.81812 (Simulation time: 0 hr 17 min 30 sec) 

Warmup complete CPU 0 instructions: 50000002 cycles: 17742346 (Simulation time: 0 hr 17 min 30 sec) 

Heartbeat CPU 0 instructions: 60000002 cycles: 24041019 heartbeat IPC: 1.58764 cumulative IPC: 1.58764 (Simulation time: 0 hr 20 min 48 sec) 
Heartbeat CPU 0 instructions: 70000003 cycles: 30349858 heartbeat IPC: 1.58508 cumulative IPC: 1.58636 (Simulation time: 0 hr 24 min 10 sec) 
Heartbeat CPU 0 instructions: 80000000 cycles: 36658149 heartbeat IPC: 1.58521 cumulative IPC: 1.58598 (Simulation time: 0 hr 26 min 55 sec) 
Heartbeat CPU 0 instructions: 90000000 cycles: 42969392 heartbeat IPC: 1.58447 cumulative IPC: 1.5856 (Simulation time: 0 hr 28 min 32 sec) 
Heartbeat CPU 0 instructions: 100000002 cycles: 49278187 heartbeat IPC: 1.58509 cumulative IPC: 1.5855 (Simulation time: 0 hr 29 min 25 sec) 
Finished CPU 0 instructions: 50000000 cycles: 31535841 cumulative IPC: 1.5855 (Simulation time: 0 hr 29 min 25 sec) 

ChampSim completed all CPUs

Region of Interest Statistics

CPU 0 cumulative IPC: 1.5855 instructions: 50000000 cycles: 31535841
L1D TOTAL     ACCESS:   21811293  HIT:   21794521  MISS:      16772
L1D LOAD      ACCESS:    6682412  HIT:    6681879  MISS:        533
L1D RFO       ACCESS:    8561362  HIT:    8561266  MISS:         96
L1D PREFETCH  ACCESS:    6567519  HIT:    6551376  MISS:      16143
L1D WRITEBACK ACCESS:          0  HIT:          0  MISS:          0
L1D PREFETCH  REQUESTED:    6682469  ISSUED:    6571926  USEFUL:         85  USELESS:      16055
L1D AVERAGE MISS LATENCY: 16.5553 cycles
L1I TOTAL     ACCESS:   19340945  HIT:   15797895  MISS:    3543050
L1I LOAD      ACCESS:    9780172  HIT:    9714111  MISS:      66061
L1I RFO       ACCESS:          0  HIT:          0  MISS:          0
L1I PREFETCH  ACCESS:    9560773  HIT:    6083784  MISS:    3476989
L1I WRITEBACK ACCESS:          0  HIT:          0  MISS:          0
L1I PREFETCH  REQUESTED:    9963157  ISSUED:    9955754  USEFUL:    2651853  USELESS:     825126
L1I AVERAGE MISS LATENCY: 14.3066 cycles
L2C TOTAL     ACCESS:    5073269  HIT:    5072980  MISS:        289
L2C LOAD      ACCESS:      66443  HIT:      66378  MISS:         65
L2C RFO       ACCESS:         94  HIT:         88  MISS:          6
L2C PREFETCH  ACCESS:    5006382  HIT:    5006165  MISS:        217
L2C WRITEBACK ACCESS:        350  HIT:        349  MISS:          1
L2C PREFETCH  REQUESTED:    3695426  ISSUED:    3695316  USEFUL:        126  USELESS:        124
L2C AVERAGE MISS LATENCY: 139.301 cycles
LLC TOTAL     ACCESS:     639907  HIT:     639109  MISS:        798
LLC LOAD      ACCESS:         65  HIT:         52  MISS:         13
LLC RFO       ACCESS:          6  HIT:          4  MISS:          2
LLC PREFETCH  ACCESS:     639758  HIT:     638978  MISS:        780
LLC WRITEBACK ACCESS:         78  HIT:         75  MISS:          3
LLC PREFETCH  REQUESTED:          0  ISSUED:          0  USEFUL:         10  USELESS:        185
LLC AVERAGE MISS LATENCY: 510.95 cycles
Major fault: 0 Minor fault: 1893
CPU 0 L1D next line prefetcher final stats

DRAM Statistics
 CHANNEL 0
 RQ ROW_BUFFER_HIT:        190  ROW_BUFFER_MISS:        605
 DBUS_CONGESTED:        546
 WQ ROW_BUFFER_HIT:        106  ROW_BUFFER_MISS:        449  FULL:          0

 AVG_CONGESTED_CYCLE: 6

CPU 0 Branch Prediction Accuracy: 99.9085% MPKI: 0.15428 Average ROB Occupancy at Mispredict: 298.627

Branch types
NOT_BRANCH: 41573143 83.1463%
BRANCH_DIRECT_JUMP: 436254 0.872508%
BRANCH_INDIRECT: 0 0%
BRANCH_CONDITIONAL: 5395897 10.7918%
BRANCH_DIRECT_CALL: 1173391 2.34678%
BRANCH_INDIRECT_CALL: 123912 0.247824%
BRANCH_RETURN: 1297311 2.59462%
BRANCH_OTHER: 0 0%

