Initialize SIGNATURE TABLE
ST_SET: 1
ST_WAY: 256
ST_TAG_BIT: 16
ST_TAG_MASK: ffff

Initialize PATTERN TABLE
PT_SET: 512
PT_WAY: 4
SIG_DELTA_BIT: 7
C_SIG_BIT: 4
C_DELTA_BIT: 4

Initialize PREFETCH FILTER
FILTER_SET: 1024

*** ChampSim Multicore Out-of-Order Simulator ***

Warmup Instructions: 50000000
Simulation Instructions: 50000000
Number of CPUs: 1
LLC sets: 2048
LLC ways: 16
Off-chip DRAM Size: 4096 MB Channels: 1 Width: 64-bit Data Rate: 3200 MT/s

CPU 0 runs /home/ykhodke/ChampSim/dpc3_traces/server_016.champsimtrace.xz
L1I D-JOLT instruction prefetcher has been constructed!
CPU 0 L1D next line prefetcher
Heartbeat CPU 0 instructions: 10000000 cycles: 3495591 heartbeat IPC: 2.86075 cumulative IPC: 2.86075 (Simulation time: 0 hr 2 min 33 sec) 
Heartbeat CPU 0 instructions: 20000000 cycles: 6991629 heartbeat IPC: 2.86038 cumulative IPC: 2.86056 (Simulation time: 0 hr 5 min 4 sec) 
Heartbeat CPU 0 instructions: 30000001 cycles: 10482841 heartbeat IPC: 2.86434 cumulative IPC: 2.86182 (Simulation time: 0 hr 8 min 7 sec) 
Heartbeat CPU 0 instructions: 40000000 cycles: 13780589 heartbeat IPC: 3.03237 cumulative IPC: 2.90263 (Simulation time: 0 hr 9 min 35 sec) 
Heartbeat CPU 0 instructions: 50000002 cycles: 17016054 heartbeat IPC: 3.09075 cumulative IPC: 2.9384 (Simulation time: 0 hr 10 min 28 sec) 

Warmup complete CPU 0 instructions: 50000002 cycles: 17016054 (Simulation time: 0 hr 10 min 28 sec) 

Heartbeat CPU 0 instructions: 60000001 cycles: 24973797 heartbeat IPC: 1.25664 cumulative IPC: 1.25664 (Simulation time: 0 hr 11 min 38 sec) 
Heartbeat CPU 0 instructions: 70000001 cycles: 31706640 heartbeat IPC: 1.48526 cumulative IPC: 1.36142 (Simulation time: 0 hr 14 min 35 sec) 
Heartbeat CPU 0 instructions: 80000001 cycles: 38526382 heartbeat IPC: 1.46633 cumulative IPC: 1.39468 (Simulation time: 0 hr 17 min 39 sec) 
Heartbeat CPU 0 instructions: 90000000 cycles: 45151326 heartbeat IPC: 1.50945 cumulative IPC: 1.4217 (Simulation time: 0 hr 20 min 44 sec) 
Heartbeat CPU 0 instructions: 100000000 cycles: 51900989 heartbeat IPC: 1.48156 cumulative IPC: 1.43328 (Simulation time: 0 hr 23 min 46 sec) 
Finished CPU 0 instructions: 50000002 cycles: 34884936 cumulative IPC: 1.43328 (Simulation time: 0 hr 23 min 46 sec) 

ChampSim completed all CPUs

Region of Interest Statistics

CPU 0 cumulative IPC: 1.43328 instructions: 50000002 cycles: 34884936
L1D TOTAL     ACCESS:   17899200  HIT:   16631899  MISS:    1267301
L1D LOAD      ACCESS:    6495241  HIT:    5921376  MISS:     573865
L1D RFO       ACCESS:    5192189  HIT:    4970217  MISS:     221972
L1D PREFETCH  ACCESS:    6211770  HIT:    5740306  MISS:     471464
L1D WRITEBACK ACCESS:          0  HIT:          0  MISS:          0
L1D PREFETCH  REQUESTED:    6538118  ISSUED:    6432697  USEFUL:     112478  USELESS:     359004
L1D AVERAGE MISS LATENCY: 24.0785 cycles
L1I TOTAL     ACCESS:   15270340  HIT:   12828869  MISS:    2441471
L1I LOAD      ACCESS:    9873358  HIT:    9837329  MISS:      36029
L1I RFO       ACCESS:          0  HIT:          0  MISS:          0
L1I PREFETCH  ACCESS:    5396982  HIT:    2991540  MISS:    2405442
L1I WRITEBACK ACCESS:          0  HIT:          0  MISS:          0
L1I PREFETCH  REQUESTED:    5790967  ISSUED:    5697679  USEFUL:    2074594  USELESS:     330832
L1I AVERAGE MISS LATENCY: 20.0196 cycles
L2C TOTAL     ACCESS:    5141147  HIT:    4456370  MISS:     684777
L2C LOAD      ACCESS:     554591  HIT:     445349  MISS:     109242
L2C RFO       ACCESS:     220388  HIT:     150498  MISS:      69890
L2C PREFETCH  ACCESS:    3937911  HIT:    3435134  MISS:     502777
L2C WRITEBACK ACCESS:     428257  HIT:     425389  MISS:       2868
L2C PREFETCH  REQUESTED:    3670393  ISSUED:    3666370  USEFUL:      10708  USELESS:     491087
L2C AVERAGE MISS LATENCY: 39.3317 cycles
LLC TOTAL     ACCESS:    1784045  HIT:    1746996  MISS:      37049
LLC LOAD      ACCESS:     109077  HIT:     104879  MISS:       4198
LLC RFO       ACCESS:      69875  HIT:      56318  MISS:      13557
LLC PREFETCH  ACCESS:    1494455  HIT:    1475314  MISS:      19141
LLC WRITEBACK ACCESS:     110638  HIT:     110485  MISS:        153
LLC PREFETCH  REQUESTED:          0  ISSUED:          0  USEFUL:       1776  USELESS:      17695
LLC AVERAGE MISS LATENCY: 177.419 cycles
Major fault: 0 Minor fault: 2373
CPU 0 L1D next line prefetcher final stats

DRAM Statistics
 CHANNEL 0
 RQ ROW_BUFFER_HIT:      11752  ROW_BUFFER_MISS:      25142
 DBUS_CONGESTED:      23245
 WQ ROW_BUFFER_HIT:       1488  ROW_BUFFER_MISS:      14274  FULL:          0

 AVG_CONGESTED_CYCLE: 6

CPU 0 Branch Prediction Accuracy: 99.7225% MPKI: 0.50376 Average ROB Occupancy at Mispredict: 134.397

Branch types
NOT_BRANCH: 40924065 81.8481%
BRANCH_DIRECT_JUMP: 487046 0.974092%
BRANCH_INDIRECT: 169159 0.338318%
BRANCH_CONDITIONAL: 6640838 13.2817%
BRANCH_DIRECT_CALL: 755592 1.51118%
BRANCH_INDIRECT_CALL: 133962 0.267924%
BRANCH_RETURN: 889572 1.77914%
BRANCH_OTHER: 0 0%

