Initialize SIGNATURE TABLE
ST_SET: 1
ST_WAY: 256
ST_TAG_BIT: 16
ST_TAG_MASK: ffff

Initialize PATTERN TABLE
PT_SET: 512
PT_WAY: 4
SIG_DELTA_BIT: 7
C_SIG_BIT: 4
C_DELTA_BIT: 4

Initialize PREFETCH FILTER
FILTER_SET: 1024

*** ChampSim Multicore Out-of-Order Simulator ***

Warmup Instructions: 50000000
Simulation Instructions: 50000000
Number of CPUs: 1
LLC sets: 2048
LLC ways: 16
Off-chip DRAM Size: 4096 MB Channels: 1 Width: 64-bit Data Rate: 3200 MT/s

CPU 0 runs /home/ykhodke/ChampSim/dpc3_traces/server_001.champsimtrace.xz
L1I D-JOLT instruction prefetcher has been constructed!
CPU 0 L1D next line prefetcher
Heartbeat CPU 0 instructions: 10000002 cycles: 3154809 heartbeat IPC: 3.16976 cumulative IPC: 3.16976 (Simulation time: 0 hr 3 min 5 sec) 
Heartbeat CPU 0 instructions: 20000000 cycles: 6369165 heartbeat IPC: 3.11104 cumulative IPC: 3.14013 (Simulation time: 0 hr 6 min 5 sec) 
Heartbeat CPU 0 instructions: 30000003 cycles: 9555086 heartbeat IPC: 3.13881 cumulative IPC: 3.13969 (Simulation time: 0 hr 9 min 1 sec) 
Heartbeat CPU 0 instructions: 40000002 cycles: 12762149 heartbeat IPC: 3.11812 cumulative IPC: 3.13427 (Simulation time: 0 hr 12 min 13 sec) 
Heartbeat CPU 0 instructions: 50000003 cycles: 15981073 heartbeat IPC: 3.10663 cumulative IPC: 3.1287 (Simulation time: 0 hr 15 min 36 sec) 

Warmup complete CPU 0 instructions: 50000003 cycles: 15981073 (Simulation time: 0 hr 15 min 36 sec) 

Heartbeat CPU 0 instructions: 60000000 cycles: 23044532 heartbeat IPC: 1.41574 cumulative IPC: 1.41574 (Simulation time: 0 hr 18 min 50 sec) 
Heartbeat CPU 0 instructions: 70000001 cycles: 29870387 heartbeat IPC: 1.46502 cumulative IPC: 1.43996 (Simulation time: 0 hr 22 min 24 sec) 
Heartbeat CPU 0 instructions: 80000002 cycles: 36684077 heartbeat IPC: 1.46763 cumulative IPC: 1.44906 (Simulation time: 0 hr 25 min 48 sec) 
Heartbeat CPU 0 instructions: 90000002 cycles: 43796192 heartbeat IPC: 1.40605 cumulative IPC: 1.43807 (Simulation time: 0 hr 28 min 26 sec) 
Heartbeat CPU 0 instructions: 100000003 cycles: 50525188 heartbeat IPC: 1.48611 cumulative IPC: 1.44742 (Simulation time: 0 hr 30 min 19 sec) 
Finished CPU 0 instructions: 50000000 cycles: 34544115 cumulative IPC: 1.44742 (Simulation time: 0 hr 30 min 19 sec) 

ChampSim completed all CPUs

Region of Interest Statistics

CPU 0 cumulative IPC: 1.44742 instructions: 50000000 cycles: 34544115
L1D TOTAL     ACCESS:   17602233  HIT:   17091166  MISS:     511067
L1D LOAD      ACCESS:    6437817  HIT:    6232548  MISS:     205269
L1D RFO       ACCESS:    5052742  HIT:    4970084  MISS:      82658
L1D PREFETCH  ACCESS:    6111674  HIT:    5888534  MISS:     223140
L1D WRITEBACK ACCESS:          0  HIT:          0  MISS:          0
L1D PREFETCH  REQUESTED:    6466840  ISSUED:    6289646  USEFUL:     131462  USELESS:      91806
L1D AVERAGE MISS LATENCY: 95.8618 cycles
L1I TOTAL     ACCESS:   16281039  HIT:   15232074  MISS:    1048965
L1I LOAD      ACCESS:    8260702  HIT:    8233164  MISS:      27538
L1I RFO       ACCESS:          0  HIT:          0  MISS:          0
L1I PREFETCH  ACCESS:    8020337  HIT:    6998910  MISS:    1021427
L1I WRITEBACK ACCESS:          0  HIT:          0  MISS:          0
L1I PREFETCH  REQUESTED:    8476575  ISSUED:    8172412  USEFUL:     727609  USELESS:     293776
L1I AVERAGE MISS LATENCY: 29.6359 cycles
L2C TOTAL     ACCESS:    2407933  HIT:    1928645  MISS:     479288
L2C LOAD      ACCESS:     182564  HIT:      86608  MISS:      95956
L2C RFO       ACCESS:      80896  HIT:      10229  MISS:      70667
L2C PREFETCH  ACCESS:    1936620  HIT:    1624420  MISS:     312200
L2C WRITEBACK ACCESS:     207853  HIT:     207388  MISS:        465
L2C PREFETCH  REQUESTED:    2199413  ISSUED:    2195896  USEFUL:      21198  USELESS:     291398
L2C AVERAGE MISS LATENCY: 125.8 cycles
LLC TOTAL     ACCESS:    1233306  HIT:     901167  MISS:     332139
LLC LOAD      ACCESS:      95817  HIT:      64931  MISS:      30886
LLC RFO       ACCESS:      70667  HIT:       6826  MISS:      63841
LLC PREFETCH  ACCESS:     898994  HIT:     661849  MISS:     237145
LLC WRITEBACK ACCESS:     167828  HIT:     167561  MISS:        267
LLC PREFETCH  REQUESTED:          0  ISSUED:          0  USEFUL:      28436  USELESS:     205159
LLC AVERAGE MISS LATENCY: 230.042 cycles
Major fault: 0 Minor fault: 16708
CPU 0 L1D next line prefetcher final stats

DRAM Statistics
 CHANNEL 0
 RQ ROW_BUFFER_HIT:      99313  ROW_BUFFER_MISS:     232520
 DBUS_CONGESTED:     225698
 WQ ROW_BUFFER_HIT:      36508  ROW_BUFFER_MISS:     122596  FULL:          0

 AVG_CONGESTED_CYCLE: 6

CPU 0 Branch Prediction Accuracy: 99.5889% MPKI: 0.70108 Average ROB Occupancy at Mispredict: 115.973

Branch types
NOT_BRANCH: 41473571 82.9471%
BRANCH_DIRECT_JUMP: 347941 0.695882%
BRANCH_INDIRECT: 148212 0.296424%
BRANCH_CONDITIONAL: 6817276 13.6346%
BRANCH_DIRECT_CALL: 570724 1.14145%
BRANCH_INDIRECT_CALL: 25133 0.050266%
BRANCH_RETURN: 617123 1.23425%
BRANCH_OTHER: 0 0%

