Initialize SIGNATURE TABLE
ST_SET: 1
ST_WAY: 256
ST_TAG_BIT: 16
ST_TAG_MASK: ffff

Initialize PATTERN TABLE
PT_SET: 512
PT_WAY: 4
SIG_DELTA_BIT: 7
C_SIG_BIT: 4
C_DELTA_BIT: 4

Initialize PREFETCH FILTER
FILTER_SET: 1024

*** ChampSim Multicore Out-of-Order Simulator ***

Warmup Instructions: 50000000
Simulation Instructions: 50000000
Number of CPUs: 1
LLC sets: 2048
LLC ways: 16
Off-chip DRAM Size: 4096 MB Channels: 1 Width: 64-bit Data Rate: 3200 MT/s

CPU 0 runs /home/ykhodke/ChampSim/dpc3_traces/server_002.champsimtrace.xz
CPU 0 EPI prefetcher
CPU 0 L1D next line prefetcher
Heartbeat CPU 0 instructions: 10000000 cycles: 3581230 heartbeat IPC: 2.79234 cumulative IPC: 2.79234 (Simulation time: 0 hr 3 min 54 sec) 
Heartbeat CPU 0 instructions: 20000002 cycles: 7170054 heartbeat IPC: 2.78643 cumulative IPC: 2.78938 (Simulation time: 0 hr 7 min 13 sec) 
Heartbeat CPU 0 instructions: 30000000 cycles: 10710805 heartbeat IPC: 2.82426 cumulative IPC: 2.80091 (Simulation time: 0 hr 10 min 35 sec) 
Heartbeat CPU 0 instructions: 40000000 cycles: 14261050 heartbeat IPC: 2.81671 cumulative IPC: 2.80484 (Simulation time: 0 hr 14 min 5 sec) 
Heartbeat CPU 0 instructions: 50000001 cycles: 17808821 heartbeat IPC: 2.81867 cumulative IPC: 2.8076 (Simulation time: 0 hr 17 min 37 sec) 

Warmup complete CPU 0 instructions: 50000001 cycles: 17808821 (Simulation time: 0 hr 17 min 37 sec) 

Heartbeat CPU 0 instructions: 60000000 cycles: 24250362 heartbeat IPC: 1.55242 cumulative IPC: 1.55242 (Simulation time: 0 hr 21 min 11 sec) 
Heartbeat CPU 0 instructions: 70000003 cycles: 30686309 heartbeat IPC: 1.55377 cumulative IPC: 1.5531 (Simulation time: 0 hr 25 min 33 sec) 
Heartbeat CPU 0 instructions: 80000003 cycles: 37124839 heartbeat IPC: 1.55315 cumulative IPC: 1.55312 (Simulation time: 0 hr 29 min 53 sec) 
Heartbeat CPU 0 instructions: 90000002 cycles: 43559791 heartbeat IPC: 1.55401 cumulative IPC: 1.55334 (Simulation time: 0 hr 32 min 45 sec) 
Heartbeat CPU 0 instructions: 100000003 cycles: 49994358 heartbeat IPC: 1.55411 cumulative IPC: 1.55349 (Simulation time: 0 hr 34 min 30 sec) 
Finished CPU 0 instructions: 50000002 cycles: 32185537 cumulative IPC: 1.55349 (Simulation time: 0 hr 34 min 30 sec) 

ChampSim completed all CPUs

Region of Interest Statistics

CPU 0 cumulative IPC: 1.55349 instructions: 50000002 cycles: 32185537
L1D TOTAL     ACCESS:   21525230  HIT:   21524421  MISS:        809
L1D LOAD      ACCESS:    6602278  HIT:    6601901  MISS:        377
L1D RFO       ACCESS:    8433017  HIT:    8432905  MISS:        112
L1D PREFETCH  ACCESS:    6489935  HIT:    6489615  MISS:        320
L1D WRITEBACK ACCESS:          0  HIT:          0  MISS:          0
L1D PREFETCH  REQUESTED:    6602328  ISSUED:    6497297  USEFUL:         90  USELESS:        231
L1D AVERAGE MISS LATENCY: 37.0717 cycles
L1I TOTAL     ACCESS:   39768110  HIT:   38415211  MISS:    1352899
L1I LOAD      ACCESS:    9879721  HIT:    9863445  MISS:      16276
L1I RFO       ACCESS:          0  HIT:          0  MISS:          0
L1I PREFETCH  ACCESS:   29888389  HIT:   28551766  MISS:    1336623
L1I WRITEBACK ACCESS:          0  HIT:          0  MISS:          0
L1I PREFETCH  REQUESTED:   36554143  ISSUED:   36554143  USEFUL:    1042287  USELESS:     294395
L1I AVERAGE MISS LATENCY: 14.0699 cycles
L2C TOTAL     ACCESS:    1847756  HIT:    1847485  MISS:        271
L2C LOAD      ACCESS:       6648  HIT:       6578  MISS:         70
L2C RFO       ACCESS:        112  HIT:        110  MISS:          2
L2C PREFETCH  ACCESS:    1840660  HIT:    1840463  MISS:        197
L2C WRITEBACK ACCESS:        336  HIT:        334  MISS:          2
L2C PREFETCH  REQUESTED:     858433  ISSUED:     858425  USEFUL:         62  USELESS:        108
L2C AVERAGE MISS LATENCY: 117.679 cycles
LLC TOTAL     ACCESS:     157020  HIT:     156417  MISS:        603
LLC LOAD      ACCESS:         70  HIT:         53  MISS:         17
LLC RFO       ACCESS:          2  HIT:          0  MISS:          2
LLC PREFETCH  ACCESS:     156856  HIT:     156276  MISS:        580
LLC WRITEBACK ACCESS:         92  HIT:         88  MISS:          4
LLC PREFETCH  REQUESTED:          0  ISSUED:          0  USEFUL:          7  USELESS:        150
LLC AVERAGE MISS LATENCY: 325.617 cycles
Major fault: 0 Minor fault: 1867
CPU 0 L1I EPI prefetcher final stats
CPU 0 L1D next line prefetcher final stats

DRAM Statistics
 CHANNEL 0
 RQ ROW_BUFFER_HIT:        122  ROW_BUFFER_MISS:        477
 DBUS_CONGESTED:        413
 WQ ROW_BUFFER_HIT:         78  ROW_BUFFER_MISS:        318  FULL:          0

 AVG_CONGESTED_CYCLE: 6

CPU 0 Branch Prediction Accuracy: 99.8789% MPKI: 0.20388 Average ROB Occupancy at Mispredict: 274.121

Branch types
NOT_BRANCH: 41580695 83.1614%
BRANCH_DIRECT_JUMP: 461630 0.92326%
BRANCH_INDIRECT: 0 0%
BRANCH_CONDITIONAL: 5376437 10.7529%
BRANCH_DIRECT_CALL: 1175775 2.35155%
BRANCH_INDIRECT_CALL: 114840 0.22968%
BRANCH_RETURN: 1290625 2.58125%
BRANCH_OTHER: 0 0%

