Initialize SIGNATURE TABLE
ST_SET: 1
ST_WAY: 256
ST_TAG_BIT: 16
ST_TAG_MASK: ffff

Initialize PATTERN TABLE
PT_SET: 512
PT_WAY: 4
SIG_DELTA_BIT: 7
C_SIG_BIT: 4
C_DELTA_BIT: 4

Initialize PREFETCH FILTER
FILTER_SET: 1024

*** ChampSim Multicore Out-of-Order Simulator ***

Warmup Instructions: 50000000
Simulation Instructions: 50000000
Number of CPUs: 1
LLC sets: 2048
LLC ways: 16
Off-chip DRAM Size: 4096 MB Channels: 1 Width: 64-bit Data Rate: 3200 MT/s

CPU 0 runs /home/ykhodke/ChampSim/dpc3_traces/server_023.champsimtrace.xz
L1I D-JOLT instruction prefetcher has been constructed!
CPU 0 L1D next line prefetcher
Heartbeat CPU 0 instructions: 10000000 cycles: 3497406 heartbeat IPC: 2.85926 cumulative IPC: 2.85926 (Simulation time: 0 hr 3 min 33 sec) 
Heartbeat CPU 0 instructions: 20000000 cycles: 6994882 heartbeat IPC: 2.8592 cumulative IPC: 2.85923 (Simulation time: 0 hr 6 min 58 sec) 
Heartbeat CPU 0 instructions: 30000001 cycles: 10485175 heartbeat IPC: 2.86509 cumulative IPC: 2.86118 (Simulation time: 0 hr 9 min 40 sec) 
Heartbeat CPU 0 instructions: 40000003 cycles: 13981341 heartbeat IPC: 2.86028 cumulative IPC: 2.86096 (Simulation time: 0 hr 12 min 53 sec) 
Heartbeat CPU 0 instructions: 50000001 cycles: 17478809 heartbeat IPC: 2.85921 cumulative IPC: 2.86061 (Simulation time: 0 hr 15 min 42 sec) 

Warmup complete CPU 0 instructions: 50000001 cycles: 17478809 (Simulation time: 0 hr 15 min 42 sec) 

Heartbeat CPU 0 instructions: 60000002 cycles: 24219344 heartbeat IPC: 1.48356 cumulative IPC: 1.48356 (Simulation time: 0 hr 18 min 30 sec) 
Heartbeat CPU 0 instructions: 70000002 cycles: 31206593 heartbeat IPC: 1.43118 cumulative IPC: 1.4569 (Simulation time: 0 hr 21 min 21 sec) 
Heartbeat CPU 0 instructions: 80000000 cycles: 38070865 heartbeat IPC: 1.45682 cumulative IPC: 1.45687 (Simulation time: 0 hr 24 min 8 sec) 
Heartbeat CPU 0 instructions: 90000000 cycles: 44985177 heartbeat IPC: 1.44628 cumulative IPC: 1.45421 (Simulation time: 0 hr 26 min 19 sec) 
Heartbeat CPU 0 instructions: 100000001 cycles: 51828937 heartbeat IPC: 1.46119 cumulative IPC: 1.4556 (Simulation time: 0 hr 27 min 53 sec) 
Finished CPU 0 instructions: 50000000 cycles: 34350128 cumulative IPC: 1.4556 (Simulation time: 0 hr 27 min 53 sec) 

ChampSim completed all CPUs

Region of Interest Statistics

CPU 0 cumulative IPC: 1.4556 instructions: 50000000 cycles: 34350128
L1D TOTAL     ACCESS:   19351880  HIT:   17885118  MISS:    1466762
L1D LOAD      ACCESS:    6844790  HIT:    6184246  MISS:     660544
L1D RFO       ACCESS:    5983914  HIT:    5722665  MISS:     261249
L1D PREFETCH  ACCESS:    6523176  HIT:    5978207  MISS:     544969
L1D WRITEBACK ACCESS:          0  HIT:          0  MISS:          0
L1D PREFETCH  REQUESTED:    6895635  ISSUED:    6774548  USEFUL:     130398  USELESS:     414579
L1D AVERAGE MISS LATENCY: 24.6193 cycles
L1I TOTAL     ACCESS:   13737504  HIT:   10985006  MISS:    2752498
L1I LOAD      ACCESS:    9426367  HIT:    9366083  MISS:      60284
L1I RFO       ACCESS:          0  HIT:          0  MISS:          0
L1I PREFETCH  ACCESS:    4311137  HIT:    1618923  MISS:    2692214
L1I WRITEBACK ACCESS:          0  HIT:          0  MISS:          0
L1I PREFETCH  REQUESTED:    4475963  ISSUED:    4456599  USEFUL:    2370553  USELESS:     321663
L1I AVERAGE MISS LATENCY: 19.3456 cycles
L2C TOTAL     ACCESS:    5890009  HIT:    5149020  MISS:     740989
L2C LOAD      ACCESS:     637188  HIT:     507226  MISS:     129962
L2C RFO       ACCESS:     259440  HIT:     180888  MISS:      78552
L2C PREFETCH  ACCESS:    4494146  HIT:    3966058  MISS:     528088
L2C WRITEBACK ACCESS:     499235  HIT:     494848  MISS:       4387
L2C PREFETCH  REQUESTED:    3799974  ISSUED:    3796206  USEFUL:      19268  USELESS:     509420
L2C AVERAGE MISS LATENCY: 40.6803 cycles
LLC TOTAL     ACCESS:    1922255  HIT:    1868676  MISS:      53579
LLC LOAD      ACCESS:     129819  HIT:     123087  MISS:       6732
LLC RFO       ACCESS:      78549  HIT:      60576  MISS:      17973
LLC PREFETCH  ACCESS:    1577960  HIT:    1549422  MISS:      28538
LLC WRITEBACK ACCESS:     135927  HIT:     135591  MISS:        336
LLC PREFETCH  REQUESTED:          0  ISSUED:          0  USEFUL:       2821  USELESS:      26112
LLC AVERAGE MISS LATENCY: 179.812 cycles
Major fault: 0 Minor fault: 2775
CPU 0 L1D next line prefetcher final stats

DRAM Statistics
 CHANNEL 0
 RQ ROW_BUFFER_HIT:      15530  ROW_BUFFER_MISS:      37701
 DBUS_CONGESTED:      31239
 WQ ROW_BUFFER_HIT:       2468  ROW_BUFFER_MISS:      19183  FULL:          0

 AVG_CONGESTED_CYCLE: 6

CPU 0 Branch Prediction Accuracy: 99.6798% MPKI: 0.58608 Average ROB Occupancy at Mispredict: 146.329

Branch types
NOT_BRANCH: 40848356 81.6967%
BRANCH_DIRECT_JUMP: 548373 1.09675%
BRANCH_INDIRECT: 189802 0.379604%
BRANCH_CONDITIONAL: 6372773 12.7455%
BRANCH_DIRECT_CALL: 862207 1.72441%
BRANCH_INDIRECT_CALL: 158149 0.316298%
BRANCH_RETURN: 1020345 2.04069%
BRANCH_OTHER: 0 0%

