Initialize SIGNATURE TABLE
ST_SET: 1
ST_WAY: 256
ST_TAG_BIT: 16
ST_TAG_MASK: ffff

Initialize PATTERN TABLE
PT_SET: 512
PT_WAY: 4
SIG_DELTA_BIT: 7
C_SIG_BIT: 4
C_DELTA_BIT: 4

Initialize PREFETCH FILTER
FILTER_SET: 1024

*** ChampSim Multicore Out-of-Order Simulator ***

Warmup Instructions: 50000000
Simulation Instructions: 50000000
Number of CPUs: 1
LLC sets: 2048
LLC ways: 16
Off-chip DRAM Size: 4096 MB Channels: 1 Width: 64-bit Data Rate: 3200 MT/s

CPU 0 runs /home/ykhodke/ChampSim/dpc3_traces/server_011.champsimtrace.xz
L1I D-JOLT instruction prefetcher has been constructed!
CPU 0 L1D next line prefetcher
Heartbeat CPU 0 instructions: 10000002 cycles: 3202773 heartbeat IPC: 3.12229 cumulative IPC: 3.12229 (Simulation time: 0 hr 2 min 46 sec) 
Heartbeat CPU 0 instructions: 20000001 cycles: 6410842 heartbeat IPC: 3.11714 cumulative IPC: 3.11972 (Simulation time: 0 hr 5 min 46 sec) 
Heartbeat CPU 0 instructions: 30000001 cycles: 9662965 heartbeat IPC: 3.07491 cumulative IPC: 3.10464 (Simulation time: 0 hr 8 min 23 sec) 
Heartbeat CPU 0 instructions: 40000003 cycles: 12862839 heartbeat IPC: 3.12512 cumulative IPC: 3.10973 (Simulation time: 0 hr 11 min 23 sec) 
Heartbeat CPU 0 instructions: 50000000 cycles: 16070135 heartbeat IPC: 3.11789 cumulative IPC: 3.11136 (Simulation time: 0 hr 14 min 4 sec) 

Warmup complete CPU 0 instructions: 50000004 cycles: 16070136 (Simulation time: 0 hr 14 min 4 sec) 

Heartbeat CPU 0 instructions: 60000002 cycles: 23460012 heartbeat IPC: 1.3532 cumulative IPC: 1.3532 (Simulation time: 0 hr 17 min 23 sec) 
Heartbeat CPU 0 instructions: 70000001 cycles: 31262042 heartbeat IPC: 1.28172 cumulative IPC: 1.31649 (Simulation time: 0 hr 20 min 39 sec) 
Heartbeat CPU 0 instructions: 80000003 cycles: 40166969 heartbeat IPC: 1.12297 cumulative IPC: 1.24498 (Simulation time: 0 hr 23 min 7 sec) 
Heartbeat CPU 0 instructions: 90000001 cycles: 47784663 heartbeat IPC: 1.31273 cumulative IPC: 1.26125 (Simulation time: 0 hr 25 min 52 sec) 
Heartbeat CPU 0 instructions: 100000000 cycles: 55140692 heartbeat IPC: 1.35943 cumulative IPC: 1.27974 (Simulation time: 0 hr 27 min 49 sec) 
Finished CPU 0 instructions: 50000003 cycles: 39070568 cumulative IPC: 1.27974 (Simulation time: 0 hr 27 min 49 sec) 

ChampSim completed all CPUs

Region of Interest Statistics

CPU 0 cumulative IPC: 1.27974 instructions: 50000003 cycles: 39070568
L1D TOTAL     ACCESS:   18163404  HIT:   17132326  MISS:    1031078
L1D LOAD      ACCESS:    6784456  HIT:    6302819  MISS:     481637
L1D RFO       ACCESS:    4833709  HIT:    4751759  MISS:      81950
L1D PREFETCH  ACCESS:    6545239  HIT:    6077748  MISS:     467491
L1D WRITEBACK ACCESS:          0  HIT:          0  MISS:          0
L1D PREFETCH  REQUESTED:    6821202  ISSUED:    6729282  USEFUL:     137265  USELESS:     330223
L1D AVERAGE MISS LATENCY: 41.2509 cycles
L1I TOTAL     ACCESS:   16279697  HIT:   14383254  MISS:    1896443
L1I LOAD      ACCESS:    8892248  HIT:    8797404  MISS:      94844
L1I RFO       ACCESS:          0  HIT:          0  MISS:          0
L1I PREFETCH  ACCESS:    7387449  HIT:    5585850  MISS:    1801599
L1I WRITEBACK ACCESS:          0  HIT:          0  MISS:          0
L1I PREFETCH  REQUESTED:    8248458  ISSUED:    7781338  USEFUL:    1251027  USELESS:     550564
L1I AVERAGE MISS LATENCY: 30.8142 cycles
L2C TOTAL     ACCESS:    3871194  HIT:    2712707  MISS:    1158487
L2C LOAD      ACCESS:     522595  HIT:     276954  MISS:     245641
L2C RFO       ACCESS:      80153  HIT:      33514  MISS:      46639
L2C PREFETCH  ACCESS:    3000336  HIT:    2136461  MISS:     863875
L2C WRITEBACK ACCESS:     268110  HIT:     265778  MISS:       2332
L2C PREFETCH  REQUESTED:    2831947  ISSUED:    2828491  USEFUL:      28825  USELESS:     835164
L2C AVERAGE MISS LATENCY: 50.4653 cycles
LLC TOTAL     ACCESS:    2172345  HIT:    1988164  MISS:     184181
LLC LOAD      ACCESS:     245540  HIT:     217249  MISS:      28291
LLC RFO       ACCESS:      46632  HIT:      33104  MISS:      13528
LLC PREFETCH  ACCESS:    1724409  HIT:    1582435  MISS:     141974
LLC WRITEBACK ACCESS:     155764  HIT:     155376  MISS:        388
LLC PREFETCH  REQUESTED:          0  ISSUED:          0  USEFUL:      18342  USELESS:     123747
LLC AVERAGE MISS LATENCY: 176.237 cycles
Major fault: 0 Minor fault: 6982
CPU 0 L1D next line prefetcher final stats

DRAM Statistics
 CHANNEL 0
 RQ ROW_BUFFER_HIT:      34069  ROW_BUFFER_MISS:     149700
 DBUS_CONGESTED:      77329
 WQ ROW_BUFFER_HIT:      12637  ROW_BUFFER_MISS:      49634  FULL:          0

 AVG_CONGESTED_CYCLE: 5

CPU 0 Branch Prediction Accuracy: 97.5565% MPKI: 4.59006 Average ROB Occupancy at Mispredict: 62.6449

Branch types
NOT_BRANCH: 40607199 81.2144%
BRANCH_DIRECT_JUMP: 451601 0.903202%
BRANCH_INDIRECT: 151580 0.30316%
BRANCH_CONDITIONAL: 7041635 14.0833%
BRANCH_DIRECT_CALL: 647827 1.29565%
BRANCH_INDIRECT_CALL: 211373 0.422746%
BRANCH_RETURN: 888439 1.77688%
BRANCH_OTHER: 0 0%

