Initialize SIGNATURE TABLE
ST_SET: 1
ST_WAY: 256
ST_TAG_BIT: 16
ST_TAG_MASK: ffff

Initialize PATTERN TABLE
PT_SET: 512
PT_WAY: 4
SIG_DELTA_BIT: 7
C_SIG_BIT: 4
C_DELTA_BIT: 4

Initialize PREFETCH FILTER
FILTER_SET: 1024

*** ChampSim Multicore Out-of-Order Simulator ***

Warmup Instructions: 50000000
Simulation Instructions: 50000000
Number of CPUs: 1
LLC sets: 2048
LLC ways: 16
Off-chip DRAM Size: 4096 MB Channels: 1 Width: 64-bit Data Rate: 3200 MT/s

CPU 0 runs /home/ykhodke/ChampSim/dpc3_traces/server_013.champsimtrace.xz
L1I D-JOLT instruction prefetcher has been constructed!
CPU 0 L1D next line prefetcher
Heartbeat CPU 0 instructions: 10000000 cycles: 3211369 heartbeat IPC: 3.11394 cumulative IPC: 3.11394 (Simulation time: 0 hr 3 min 13 sec) 
Heartbeat CPU 0 instructions: 20000001 cycles: 6411979 heartbeat IPC: 3.1244 cumulative IPC: 3.11916 (Simulation time: 0 hr 6 min 27 sec) 
Heartbeat CPU 0 instructions: 30000002 cycles: 9616797 heartbeat IPC: 3.1203 cumulative IPC: 3.11954 (Simulation time: 0 hr 10 min 6 sec) 
Heartbeat CPU 0 instructions: 40000002 cycles: 12817453 heartbeat IPC: 3.12436 cumulative IPC: 3.12074 (Simulation time: 0 hr 12 min 49 sec) 
Heartbeat CPU 0 instructions: 50000000 cycles: 16018539 heartbeat IPC: 3.12394 cumulative IPC: 3.12138 (Simulation time: 0 hr 15 min 37 sec) 

Warmup complete CPU 0 instructions: 50000004 cycles: 16018540 (Simulation time: 0 hr 15 min 37 sec) 

Heartbeat CPU 0 instructions: 60000002 cycles: 23573261 heartbeat IPC: 1.32368 cumulative IPC: 1.32368 (Simulation time: 0 hr 18 min 22 sec) 
Heartbeat CPU 0 instructions: 70000002 cycles: 31297563 heartbeat IPC: 1.29462 cumulative IPC: 1.30898 (Simulation time: 0 hr 21 min 15 sec) 
Heartbeat CPU 0 instructions: 80000003 cycles: 38470177 heartbeat IPC: 1.39419 cumulative IPC: 1.33621 (Simulation time: 0 hr 24 min 0 sec) 
Heartbeat CPU 0 instructions: 90000003 cycles: 45835832 heartbeat IPC: 1.35765 cumulative IPC: 1.3415 (Simulation time: 0 hr 26 min 29 sec) 
Heartbeat CPU 0 instructions: 100000003 cycles: 53203653 heartbeat IPC: 1.35725 cumulative IPC: 1.34462 (Simulation time: 0 hr 28 min 37 sec) 
Finished CPU 0 instructions: 50000003 cycles: 37185114 cumulative IPC: 1.34462 (Simulation time: 0 hr 28 min 37 sec) 

ChampSim completed all CPUs

Region of Interest Statistics

CPU 0 cumulative IPC: 1.34462 instructions: 50000003 cycles: 37185114
L1D TOTAL     ACCESS:   17355227  HIT:   16288848  MISS:    1066379
L1D LOAD      ACCESS:    6333119  HIT:    5832241  MISS:     500878
L1D RFO       ACCESS:    4929866  HIT:    4849649  MISS:      80217
L1D PREFETCH  ACCESS:    6092242  HIT:    5606958  MISS:     485284
L1D WRITEBACK ACCESS:          0  HIT:          0  MISS:          0
L1D PREFETCH  REQUESTED:    6367576  ISSUED:    6273877  USEFUL:     133760  USELESS:     351533
L1D AVERAGE MISS LATENCY: 42.2627 cycles
L1I TOTAL     ACCESS:   17978126  HIT:   15609166  MISS:    2368960
L1I LOAD      ACCESS:    8770644  HIT:    8682702  MISS:      87942
L1I RFO       ACCESS:          0  HIT:          0  MISS:          0
L1I PREFETCH  ACCESS:    9207482  HIT:    6926464  MISS:    2281018
L1I WRITEBACK ACCESS:          0  HIT:          0  MISS:          0
L1I PREFETCH  REQUESTED:   10729862  ISSUED:    9785316  USEFUL:    1524387  USELESS:     756524
L1I AVERAGE MISS LATENCY: 29.3747 cycles
L2C TOTAL     ACCESS:    4539464  HIT:    3115100  MISS:    1424364
L2C LOAD      ACCESS:     520880  HIT:     234111  MISS:     286769
L2C RFO       ACCESS:      78830  HIT:      29657  MISS:      49173
L2C PREFETCH  ACCESS:    3663981  HIT:    2577203  MISS:    1086778
L2C WRITEBACK ACCESS:     275773  HIT:     274129  MISS:       1644
L2C PREFETCH  REQUESTED:    3492028  ISSUED:    3488106  USEFUL:      24499  USELESS:    1062395
L2C AVERAGE MISS LATENCY: 45.6104 cycles
LLC TOTAL     ACCESS:    2623400  HIT:    2459596  MISS:     163804
LLC LOAD      ACCESS:     286658  HIT:     264554  MISS:      22104
LLC RFO       ACCESS:      49171  HIT:      40079  MISS:       9092
LLC PREFETCH  ACCESS:    2112797  HIT:    1980396  MISS:     132401
LLC WRITEBACK ACCESS:     174774  HIT:     174567  MISS:        207
LLC PREFETCH  REQUESTED:          0  ISSUED:          0  USEFUL:      11260  USELESS:     120561
LLC AVERAGE MISS LATENCY: 174.915 cycles
Major fault: 0 Minor fault: 6209
CPU 0 L1D next line prefetcher final stats

DRAM Statistics
 CHANNEL 0
 RQ ROW_BUFFER_HIT:      26818  ROW_BUFFER_MISS:     136770
 DBUS_CONGESTED:      68923
 WQ ROW_BUFFER_HIT:      11576  ROW_BUFFER_MISS:      49786  FULL:          0

 AVG_CONGESTED_CYCLE: 5

CPU 0 Branch Prediction Accuracy: 99.4114% MPKI: 1.0933 Average ROB Occupancy at Mispredict: 125.179

Branch types
NOT_BRANCH: 40713265 81.4265%
BRANCH_DIRECT_JUMP: 463701 0.927402%
BRANCH_INDIRECT: 146544 0.293088%
BRANCH_CONDITIONAL: 6981954 13.9639%
BRANCH_DIRECT_CALL: 665005 1.33001%
BRANCH_INDIRECT_CALL: 165152 0.330304%
BRANCH_RETURN: 864314 1.72863%
BRANCH_OTHER: 0 0%

