Initialize SIGNATURE TABLE
ST_SET: 1
ST_WAY: 256
ST_TAG_BIT: 16
ST_TAG_MASK: ffff

Initialize PATTERN TABLE
PT_SET: 512
PT_WAY: 4
SIG_DELTA_BIT: 7
C_SIG_BIT: 4
C_DELTA_BIT: 4

Initialize PREFETCH FILTER
FILTER_SET: 1024

*** ChampSim Multicore Out-of-Order Simulator ***

Warmup Instructions: 50000000
Simulation Instructions: 50000000
Number of CPUs: 1
LLC sets: 2048
LLC ways: 16
Off-chip DRAM Size: 4096 MB Channels: 1 Width: 64-bit Data Rate: 3200 MT/s

CPU 0 runs /home/ykhodke/ChampSim/dpc3_traces/server_032.champsimtrace.xz
L1I D-JOLT instruction prefetcher has been constructed!
CPU 0 L1D next line prefetcher
Heartbeat CPU 0 instructions: 10000002 cycles: 3521879 heartbeat IPC: 2.83939 cumulative IPC: 2.83939 (Simulation time: 0 hr 3 min 32 sec) 
Heartbeat CPU 0 instructions: 20000003 cycles: 7044713 heartbeat IPC: 2.83862 cumulative IPC: 2.83901 (Simulation time: 0 hr 7 min 6 sec) 
Heartbeat CPU 0 instructions: 30000000 cycles: 10567573 heartbeat IPC: 2.8386 cumulative IPC: 2.83887 (Simulation time: 0 hr 10 min 4 sec) 
Heartbeat CPU 0 instructions: 40000003 cycles: 14091743 heartbeat IPC: 2.83755 cumulative IPC: 2.83854 (Simulation time: 0 hr 12 min 55 sec) 
Heartbeat CPU 0 instructions: 50000000 cycles: 17614884 heartbeat IPC: 2.83838 cumulative IPC: 2.83851 (Simulation time: 0 hr 15 min 53 sec) 

Warmup complete CPU 0 instructions: 50000004 cycles: 17614885 (Simulation time: 0 hr 15 min 53 sec) 

Heartbeat CPU 0 instructions: 60000002 cycles: 24302216 heartbeat IPC: 1.49537 cumulative IPC: 1.49536 (Simulation time: 0 hr 19 min 23 sec) 
Heartbeat CPU 0 instructions: 70000000 cycles: 30987035 heartbeat IPC: 1.49593 cumulative IPC: 1.49565 (Simulation time: 0 hr 22 min 37 sec) 
*** Reached end of trace for Core: 0 Repeating trace: /home/ykhodke/ChampSim/dpc3_traces/server_032.champsimtrace.xz
Heartbeat CPU 0 instructions: 80000003 cycles: 37670624 heartbeat IPC: 1.4962 cumulative IPC: 1.49583 (Simulation time: 0 hr 25 min 28 sec) 
Heartbeat CPU 0 instructions: 90000002 cycles: 44330089 heartbeat IPC: 1.50162 cumulative IPC: 1.49727 (Simulation time: 0 hr 28 min 4 sec) 
Heartbeat CPU 0 instructions: 100000001 cycles: 50995251 heartbeat IPC: 1.50034 cumulative IPC: 1.49789 (Simulation time: 0 hr 29 min 38 sec) 
Finished CPU 0 instructions: 50000002 cycles: 33380368 cumulative IPC: 1.49789 (Simulation time: 0 hr 29 min 38 sec) 

ChampSim completed all CPUs

Region of Interest Statistics

CPU 0 cumulative IPC: 1.49789 instructions: 50000002 cycles: 33380368
L1D TOTAL     ACCESS:   19815125  HIT:   17986947  MISS:    1828178
L1D LOAD      ACCESS:    6764979  HIT:    5969160  MISS:     795819
L1D RFO       ACCESS:    6564248  HIT:    6270613  MISS:     293635
L1D PREFETCH  ACCESS:    6485898  HIT:    5747174  MISS:     738724
L1D WRITEBACK ACCESS:          0  HIT:          0  MISS:          0
L1D PREFETCH  REQUESTED:    6813690  ISSUED:    6674849  USEFUL:     168615  USELESS:     570108
L1D AVERAGE MISS LATENCY: 18.4473 cycles
L1I TOTAL     ACCESS:   17263830  HIT:   13879981  MISS:    3383849
L1I LOAD      ACCESS:    9691133  HIT:    9638448  MISS:      52685
L1I RFO       ACCESS:          0  HIT:          0  MISS:          0
L1I PREFETCH  ACCESS:    7572697  HIT:    4241533  MISS:    3331164
L1I WRITEBACK ACCESS:          0  HIT:          0  MISS:          0
L1I PREFETCH  REQUESTED:    7911892  ISSUED:    7899720  USEFUL:    3138431  USELESS:     192733
L1I AVERAGE MISS LATENCY: 17.1952 cycles
L2C TOTAL     ACCESS:    7635648  HIT:    7147820  MISS:     487828
L2C LOAD      ACCESS:     820269  HIT:     730705  MISS:      89564
L2C RFO       ACCESS:     292319  HIT:     254303  MISS:      38016
L2C PREFETCH  ACCESS:    5886683  HIT:    5528178  MISS:     358505
L2C WRITEBACK ACCESS:     636377  HIT:     634634  MISS:       1743
L2C PREFETCH  REQUESTED:    5544446  ISSUED:    5530326  USEFUL:       3024  USELESS:     355377
L2C AVERAGE MISS LATENCY: 32.6798 cycles
LLC TOTAL     ACCESS:    2098976  HIT:    2092906  MISS:       6070
LLC LOAD      ACCESS:      89453  HIT:      88941  MISS:        512
LLC RFO       ACCESS:      38015  HIT:      38015  MISS:          0
LLC PREFETCH  ACCESS:    1894493  HIT:    1888965  MISS:       5528
LLC WRITEBACK ACCESS:      77015  HIT:      76985  MISS:         30
LLC PREFETCH  REQUESTED:          0  ISSUED:          0  USEFUL:        389  USELESS:       2415
LLC AVERAGE MISS LATENCY: 147.335 cycles
Major fault: 0 Minor fault: 1183
CPU 0 L1D next line prefetcher final stats

DRAM Statistics
 CHANNEL 0
 RQ ROW_BUFFER_HIT:       1593  ROW_BUFFER_MISS:       4447
 DBUS_CONGESTED:        776
 WQ ROW_BUFFER_HIT:          0  ROW_BUFFER_MISS:         29  FULL:          0

 AVG_CONGESTED_CYCLE: 4

CPU 0 Branch Prediction Accuracy: 99.8762% MPKI: 0.2296 Average ROB Occupancy at Mispredict: 184.836

Branch types
NOT_BRANCH: 40726177 81.4524%
BRANCH_DIRECT_JUMP: 508374 1.01675%
BRANCH_INDIRECT: 180051 0.360102%
BRANCH_CONDITIONAL: 5999665 11.9993%
BRANCH_DIRECT_CALL: 1086739 2.17348%
BRANCH_INDIRECT_CALL: 206109 0.412218%
BRANCH_RETURN: 1292837 2.58567%
BRANCH_OTHER: 0 0%

