Initialize SIGNATURE TABLE
ST_SET: 1
ST_WAY: 256
ST_TAG_BIT: 16
ST_TAG_MASK: ffff

Initialize PATTERN TABLE
PT_SET: 512
PT_WAY: 4
SIG_DELTA_BIT: 7
C_SIG_BIT: 4
C_DELTA_BIT: 4

Initialize PREFETCH FILTER
FILTER_SET: 1024

*** ChampSim Multicore Out-of-Order Simulator ***

Warmup Instructions: 50000000
Simulation Instructions: 50000000
Number of CPUs: 1
LLC sets: 2048
LLC ways: 16
Off-chip DRAM Size: 4096 MB Channels: 1 Width: 64-bit Data Rate: 3200 MT/s

CPU 0 runs /home/ykhodke/ChampSim/dpc3_traces/server_028.champsimtrace.xz
L1I D-JOLT instruction prefetcher has been constructed!
CPU 0 L1D next line prefetcher
Heartbeat CPU 0 instructions: 10000001 cycles: 3492692 heartbeat IPC: 2.86312 cumulative IPC: 2.86312 (Simulation time: 0 hr 3 min 36 sec) 
Heartbeat CPU 0 instructions: 20000002 cycles: 6987331 heartbeat IPC: 2.86153 cumulative IPC: 2.86232 (Simulation time: 0 hr 6 min 40 sec) 
Heartbeat CPU 0 instructions: 30000001 cycles: 10480055 heartbeat IPC: 2.86309 cumulative IPC: 2.86258 (Simulation time: 0 hr 9 min 51 sec) 
Heartbeat CPU 0 instructions: 40000002 cycles: 13978574 heartbeat IPC: 2.85835 cumulative IPC: 2.86152 (Simulation time: 0 hr 13 min 17 sec) 
Heartbeat CPU 0 instructions: 50000001 cycles: 17473113 heartbeat IPC: 2.86161 cumulative IPC: 2.86154 (Simulation time: 0 hr 16 min 38 sec) 

Warmup complete CPU 0 instructions: 50000001 cycles: 17473113 (Simulation time: 0 hr 16 min 38 sec) 

Heartbeat CPU 0 instructions: 60000000 cycles: 24943378 heartbeat IPC: 1.33864 cumulative IPC: 1.33864 (Simulation time: 0 hr 19 min 56 sec) 
Heartbeat CPU 0 instructions: 70000000 cycles: 32412093 heartbeat IPC: 1.33892 cumulative IPC: 1.33878 (Simulation time: 0 hr 23 min 13 sec) 
Heartbeat CPU 0 instructions: 80000000 cycles: 39866272 heartbeat IPC: 1.34153 cumulative IPC: 1.33969 (Simulation time: 0 hr 26 min 32 sec) 
*** Reached end of trace for Core: 0 Repeating trace: /home/ykhodke/ChampSim/dpc3_traces/server_028.champsimtrace.xz
Heartbeat CPU 0 instructions: 90000000 cycles: 47305435 heartbeat IPC: 1.34424 cumulative IPC: 1.34083 (Simulation time: 0 hr 29 min 13 sec) 
Heartbeat CPU 0 instructions: 100000003 cycles: 54715175 heartbeat IPC: 1.34958 cumulative IPC: 1.34257 (Simulation time: 0 hr 30 min 40 sec) 
Finished CPU 0 instructions: 50000002 cycles: 37242062 cumulative IPC: 1.34257 (Simulation time: 0 hr 30 min 40 sec) 

ChampSim completed all CPUs

Region of Interest Statistics

CPU 0 cumulative IPC: 1.34257 instructions: 50000002 cycles: 37242062
L1D TOTAL     ACCESS:   19019292  HIT:   16945784  MISS:    2073508
L1D LOAD      ACCESS:    6712374  HIT:    5663454  MISS:    1048920
L1D RFO       ACCESS:    6104022  HIT:    5820835  MISS:     283187
L1D PREFETCH  ACCESS:    6202896  HIT:    5461495  MISS:     741401
L1D WRITEBACK ACCESS:          0  HIT:          0  MISS:          0
L1D PREFETCH  REQUESTED:    6771974  ISSUED:    6660524  USEFUL:     174849  USELESS:     566555
L1D AVERAGE MISS LATENCY: 21.9019 cycles
L1I TOTAL     ACCESS:   17102413  HIT:   13622232  MISS:    3480181
L1I LOAD      ACCESS:    9788009  HIT:    9751694  MISS:      36315
L1I RFO       ACCESS:          0  HIT:          0  MISS:          0
L1I PREFETCH  ACCESS:    7314404  HIT:    3870538  MISS:    3443866
L1I WRITEBACK ACCESS:          0  HIT:          0  MISS:          0
L1I PREFETCH  REQUESTED:    7785435  ISSUED:    7648975  USEFUL:    2912802  USELESS:     531069
L1I AVERAGE MISS LATENCY: 19.0848 cycles
L2C TOTAL     ACCESS:    7836677  HIT:    6986024  MISS:     850653
L2C LOAD      ACCESS:     933230  HIT:     763156  MISS:     170074
L2C RFO       ACCESS:     281208  HIT:     220910  MISS:      60298
L2C PREFETCH  ACCESS:    6017174  HIT:    5399047  MISS:     618127
L2C WRITEBACK ACCESS:     605065  HIT:     602911  MISS:       2154
L2C PREFETCH  REQUESTED:    5505144  ISSUED:    5498774  USEFUL:       9126  USELESS:     608959
L2C AVERAGE MISS LATENCY: 39.2241 cycles
LLC TOTAL     ACCESS:    2345723  HIT:    2281468  MISS:      64255
LLC LOAD      ACCESS:     169920  HIT:     153996  MISS:      15924
LLC RFO       ACCESS:      60292  HIT:      58330  MISS:       1962
LLC PREFETCH  ACCESS:    2005382  HIT:    1959403  MISS:      45979
LLC WRITEBACK ACCESS:     110129  HIT:     109739  MISS:        390
LLC PREFETCH  REQUESTED:          0  ISSUED:          0  USEFUL:       2012  USELESS:      43537
LLC AVERAGE MISS LATENCY: 154.928 cycles
Major fault: 0 Minor fault: 6044
CPU 0 L1D next line prefetcher final stats

DRAM Statistics
 CHANNEL 0
 RQ ROW_BUFFER_HIT:      17701  ROW_BUFFER_MISS:      46163
 DBUS_CONGESTED:      23585
 WQ ROW_BUFFER_HIT:        366  ROW_BUFFER_MISS:       3243  FULL:          0

 AVG_CONGESTED_CYCLE: 4

CPU 0 Branch Prediction Accuracy: 99.7093% MPKI: 0.54708 Average ROB Occupancy at Mispredict: 149.111

Branch types
NOT_BRANCH: 40590919 81.1818%
BRANCH_DIRECT_JUMP: 523494 1.04699%
BRANCH_INDIRECT: 166997 0.333994%
BRANCH_CONDITIONAL: 6365181 12.7304%
BRANCH_DIRECT_CALL: 989493 1.97899%
BRANCH_INDIRECT_CALL: 187203 0.374406%
BRANCH_RETURN: 1176698 2.3534%
BRANCH_OTHER: 0 0%

