Initialize SIGNATURE TABLE
ST_SET: 1
ST_WAY: 256
ST_TAG_BIT: 16
ST_TAG_MASK: ffff

Initialize PATTERN TABLE
PT_SET: 512
PT_WAY: 4
SIG_DELTA_BIT: 7
C_SIG_BIT: 4
C_DELTA_BIT: 4

Initialize PREFETCH FILTER
FILTER_SET: 1024

*** ChampSim Multicore Out-of-Order Simulator ***

Warmup Instructions: 50000000
Simulation Instructions: 50000000
Number of CPUs: 1
LLC sets: 2048
LLC ways: 16
Off-chip DRAM Size: 4096 MB Channels: 1 Width: 64-bit Data Rate: 3200 MT/s

CPU 0 runs /home/ykhodke/ChampSim/dpc3_traces/server_035.champsimtrace.xz
LHT KB: 126.25
SCC KB: 1.56
Total KB: 127.81
CPU 0 L1D next line prefetcher
Heartbeat CPU 0 instructions: 10000001 cycles: 3337110 heartbeat IPC: 2.99661 cumulative IPC: 2.99661 (Simulation time: 0 hr 3 min 17 sec) 
Heartbeat CPU 0 instructions: 20000000 cycles: 6673752 heartbeat IPC: 2.99702 cumulative IPC: 2.99681 (Simulation time: 0 hr 6 min 32 sec) 
Heartbeat CPU 0 instructions: 30000000 cycles: 10007359 heartbeat IPC: 2.99975 cumulative IPC: 2.99779 (Simulation time: 0 hr 9 min 56 sec) 
Heartbeat CPU 0 instructions: 40000000 cycles: 13345278 heartbeat IPC: 2.99588 cumulative IPC: 2.99731 (Simulation time: 0 hr 13 min 23 sec) 
Heartbeat CPU 0 instructions: 50000003 cycles: 16680552 heartbeat IPC: 2.99826 cumulative IPC: 2.9975 (Simulation time: 0 hr 16 min 39 sec) 

Warmup complete CPU 0 instructions: 50000003 cycles: 16680552 (Simulation time: 0 hr 16 min 39 sec) 

Heartbeat CPU 0 instructions: 60000001 cycles: 25284909 heartbeat IPC: 1.1622 cumulative IPC: 1.1622 (Simulation time: 0 hr 20 min 22 sec) 
Heartbeat CPU 0 instructions: 70000003 cycles: 33513770 heartbeat IPC: 1.21524 cumulative IPC: 1.18813 (Simulation time: 0 hr 24 min 24 sec) 
Heartbeat CPU 0 instructions: 80000001 cycles: 41906387 heartbeat IPC: 1.19152 cumulative IPC: 1.18926 (Simulation time: 0 hr 27 min 19 sec) 
Heartbeat CPU 0 instructions: 90000002 cycles: 49638623 heartbeat IPC: 1.29329 cumulative IPC: 1.21366 (Simulation time: 0 hr 29 min 6 sec) 
Heartbeat CPU 0 instructions: 100000002 cycles: 57994029 heartbeat IPC: 1.19683 cumulative IPC: 1.21026 (Simulation time: 0 hr 30 min 1 sec) 
Finished CPU 0 instructions: 50000003 cycles: 41313478 cumulative IPC: 1.21026 (Simulation time: 0 hr 30 min 1 sec) 

ChampSim completed all CPUs

Region of Interest Statistics

CPU 0 cumulative IPC: 1.21026 instructions: 50000003 cycles: 41313478
L1D TOTAL     ACCESS:   18290057  HIT:   16785858  MISS:    1504199
L1D LOAD      ACCESS:    6175413  HIT:    5474195  MISS:     701218
L1D RFO       ACCESS:    6154983  HIT:    6002425  MISS:     152558
L1D PREFETCH  ACCESS:    5959661  HIT:    5309238  MISS:     650423
L1D WRITEBACK ACCESS:          0  HIT:          0  MISS:          0
L1D PREFETCH  REQUESTED:    6221322  ISSUED:    6122962  USEFUL:     138642  USELESS:     511786
L1D AVERAGE MISS LATENCY: 44.9476 cycles
L1I TOTAL     ACCESS:   24460657  HIT:   19379586  MISS:    5081071
L1I LOAD      ACCESS:    9630881  HIT:    9128182  MISS:     502699
L1I RFO       ACCESS:          0  HIT:          0  MISS:          0
L1I PREFETCH  ACCESS:   14829776  HIT:   10251404  MISS:    4578372
L1I WRITEBACK ACCESS:          0  HIT:          0  MISS:          0
L1I PREFETCH  REQUESTED:   16961880  ISSUED:   16961880  USEFUL:    2989406  USELESS:    1588874
L1I AVERAGE MISS LATENCY: 14.0796 cycles
L2C TOTAL     ACCESS:    8662358  HIT:    8366384  MISS:     295974
L2C LOAD      ACCESS:     759951  HIT:     636184  MISS:     123767
L2C RFO       ACCESS:     150583  HIT:     128654  MISS:      21929
L2C PREFETCH  ACCESS:    7386873  HIT:    7238239  MISS:     148634
L2C WRITEBACK ACCESS:     364951  HIT:     363307  MISS:       1644
L2C PREFETCH  REQUESTED:    5119340  ISSUED:    5117917  USEFUL:      14139  USELESS:     133668
L2C AVERAGE MISS LATENCY: 168.48 cycles
LLC TOTAL     ACCESS:    1798654  HIT:    1525113  MISS:     273541
LLC LOAD      ACCESS:     123480  HIT:      34977  MISS:      88503
LLC RFO       ACCESS:      21927  HIT:      10139  MISS:      11788
LLC PREFETCH  ACCESS:    1550372  HIT:    1378131  MISS:     172241
LLC WRITEBACK ACCESS:     102875  HIT:     101866  MISS:       1009
LLC PREFETCH  REQUESTED:          0  ISSUED:          0  USEFUL:      24343  USELESS:     146839
LLC AVERAGE MISS LATENCY: 214.911 cycles
Major fault: 0 Minor fault: 5554
CPU 0 L1D next line prefetcher final stats

DRAM Statistics
 CHANNEL 0
 RQ ROW_BUFFER_HIT:      66961  ROW_BUFFER_MISS:     205563
 DBUS_CONGESTED:     153191
 WQ ROW_BUFFER_HIT:      18846  ROW_BUFFER_MISS:      72341  FULL:          0

 AVG_CONGESTED_CYCLE: 5

CPU 0 Branch Prediction Accuracy: 99.9115% MPKI: 0.17232 Average ROB Occupancy at Mispredict: 205.836

Branch types
NOT_BRANCH: 40267270 80.5345%
BRANCH_DIRECT_JUMP: 771899 1.5438%
BRANCH_INDIRECT: 108179 0.216358%
BRANCH_CONDITIONAL: 6307173 12.6143%
BRANCH_DIRECT_CALL: 1060893 2.12179%
BRANCH_INDIRECT_CALL: 211719 0.423438%
BRANCH_RETURN: 1272635 2.54527%
BRANCH_OTHER: 0 0%

