Initialize SIGNATURE TABLE
ST_SET: 1
ST_WAY: 256
ST_TAG_BIT: 16
ST_TAG_MASK: ffff

Initialize PATTERN TABLE
PT_SET: 512
PT_WAY: 4
SIG_DELTA_BIT: 7
C_SIG_BIT: 4
C_DELTA_BIT: 4

Initialize PREFETCH FILTER
FILTER_SET: 1024

*** ChampSim Multicore Out-of-Order Simulator ***

Warmup Instructions: 50000000
Simulation Instructions: 50000000
Number of CPUs: 1
LLC sets: 2048
LLC ways: 16
Off-chip DRAM Size: 4096 MB Channels: 1 Width: 64-bit Data Rate: 3200 MT/s

CPU 0 runs /home/ykhodke/ChampSim/dpc3_traces/server_012.champsimtrace.xz
L1I D-JOLT instruction prefetcher has been constructed!
CPU 0 L1D next line prefetcher
Heartbeat CPU 0 instructions: 10000002 cycles: 3192528 heartbeat IPC: 3.13231 cumulative IPC: 3.13231 (Simulation time: 0 hr 2 min 52 sec) 
Heartbeat CPU 0 instructions: 20000002 cycles: 6388009 heartbeat IPC: 3.12942 cumulative IPC: 3.13087 (Simulation time: 0 hr 5 min 43 sec) 
Heartbeat CPU 0 instructions: 30000001 cycles: 9585150 heartbeat IPC: 3.12779 cumulative IPC: 3.12984 (Simulation time: 0 hr 8 min 49 sec) 
Heartbeat CPU 0 instructions: 40000000 cycles: 12787824 heartbeat IPC: 3.12239 cumulative IPC: 3.12798 (Simulation time: 0 hr 12 min 21 sec) 
Heartbeat CPU 0 instructions: 50000003 cycles: 15983053 heartbeat IPC: 3.12967 cumulative IPC: 3.12831 (Simulation time: 0 hr 15 min 27 sec) 

Warmup complete CPU 0 instructions: 50000003 cycles: 15983053 (Simulation time: 0 hr 15 min 27 sec) 

Heartbeat CPU 0 instructions: 60000002 cycles: 23301281 heartbeat IPC: 1.36645 cumulative IPC: 1.36645 (Simulation time: 0 hr 17 min 56 sec) 
Heartbeat CPU 0 instructions: 70000000 cycles: 30687131 heartbeat IPC: 1.35394 cumulative IPC: 1.36017 (Simulation time: 0 hr 20 min 28 sec) 
Heartbeat CPU 0 instructions: 80000003 cycles: 38021767 heartbeat IPC: 1.36339 cumulative IPC: 1.36124 (Simulation time: 0 hr 22 min 58 sec) 
Heartbeat CPU 0 instructions: 90000001 cycles: 45673144 heartbeat IPC: 1.30695 cumulative IPC: 1.34725 (Simulation time: 0 hr 25 min 13 sec) 
Heartbeat CPU 0 instructions: 100000002 cycles: 53167026 heartbeat IPC: 1.33442 cumulative IPC: 1.34467 (Simulation time: 0 hr 26 min 55 sec) 
Finished CPU 0 instructions: 50000001 cycles: 37183974 cumulative IPC: 1.34467 (Simulation time: 0 hr 26 min 55 sec) 

ChampSim completed all CPUs

Region of Interest Statistics

CPU 0 cumulative IPC: 1.34467 instructions: 50000001 cycles: 37183974
L1D TOTAL     ACCESS:   17437668  HIT:   16394796  MISS:    1042872
L1D LOAD      ACCESS:    6357247  HIT:    5870922  MISS:     486325
L1D RFO       ACCESS:    4965172  HIT:    4883379  MISS:      81793
L1D PREFETCH  ACCESS:    6115249  HIT:    5640495  MISS:     474754
L1D WRITEBACK ACCESS:          0  HIT:          0  MISS:          0
L1D PREFETCH  REQUESTED:    6391005  ISSUED:    6290679  USEFUL:     134161  USELESS:     340614
L1D AVERAGE MISS LATENCY: 39.9247 cycles
L1I TOTAL     ACCESS:   14379326  HIT:   12529761  MISS:    1849565
L1I LOAD      ACCESS:    8696890  HIT:    8494338  MISS:     202552
L1I RFO       ACCESS:          0  HIT:          0  MISS:          0
L1I PREFETCH  ACCESS:    5682436  HIT:    4035423  MISS:    1647013
L1I WRITEBACK ACCESS:          0  HIT:          0  MISS:          0
L1I PREFETCH  REQUESTED:    5964377  ISSUED:    5890852  USEFUL:    1248462  USELESS:     398625
L1I AVERAGE MISS LATENCY: 29.8995 cycles
L2C TOTAL     ACCESS:    3841988  HIT:    2561609  MISS:    1280379
L2C LOAD      ACCESS:     601007  HIT:     278165  MISS:     322842
L2C RFO       ACCESS:      80673  HIT:      31124  MISS:      49549
L2C PREFETCH  ACCESS:    2884834  HIT:    1978313  MISS:     906521
L2C WRITEBACK ACCESS:     275474  HIT:     274007  MISS:       1467
L2C PREFETCH  REQUESTED:    2812679  ISSUED:    2810089  USEFUL:      45967  USELESS:     860539
L2C AVERAGE MISS LATENCY: 44.1145 cycles
LLC TOTAL     ACCESS:    2346265  HIT:    2205099  MISS:     141166
LLC LOAD      ACCESS:     322702  HIT:     301819  MISS:      20883
LLC RFO       ACCESS:      49546  HIT:      40013  MISS:       9533
LLC PREFETCH  ACCESS:    1806099  HIT:    1695675  MISS:     110424
LLC WRITEBACK ACCESS:     167918  HIT:     167592  MISS:        326
LLC PREFETCH  REQUESTED:          0  ISSUED:          0  USEFUL:      13539  USELESS:      96742
LLC AVERAGE MISS LATENCY: 169.427 cycles
Major fault: 0 Minor fault: 5609
CPU 0 L1D next line prefetcher final stats

DRAM Statistics
 CHANNEL 0
 RQ ROW_BUFFER_HIT:      20884  ROW_BUFFER_MISS:     119949
 DBUS_CONGESTED:      58812
 WQ ROW_BUFFER_HIT:      10708  ROW_BUFFER_MISS:      48310  FULL:          0

 AVG_CONGESTED_CYCLE: 5

CPU 0 Branch Prediction Accuracy: 99.4607% MPKI: 1.00288 Average ROB Occupancy at Mispredict: 115.602

Branch types
NOT_BRANCH: 40701161 81.4023%
BRANCH_DIRECT_JUMP: 469810 0.93962%
BRANCH_INDIRECT: 153732 0.307464%
BRANCH_CONDITIONAL: 6944091 13.8882%
BRANCH_DIRECT_CALL: 679880 1.35976%
BRANCH_INDIRECT_CALL: 168745 0.33749%
BRANCH_RETURN: 882493 1.76499%
BRANCH_OTHER: 0 0%

