Initialize SIGNATURE TABLE
ST_SET: 1
ST_WAY: 256
ST_TAG_BIT: 16
ST_TAG_MASK: ffff

Initialize PATTERN TABLE
PT_SET: 512
PT_WAY: 4
SIG_DELTA_BIT: 7
C_SIG_BIT: 4
C_DELTA_BIT: 4

Initialize PREFETCH FILTER
FILTER_SET: 1024

*** ChampSim Multicore Out-of-Order Simulator ***

Warmup Instructions: 50000000
Simulation Instructions: 50000000
Number of CPUs: 1
LLC sets: 2048
LLC ways: 16
Off-chip DRAM Size: 4096 MB Channels: 1 Width: 64-bit Data Rate: 3200 MT/s

CPU 0 runs /home/ykhodke/ChampSim/dpc3_traces/server_013.champsimtrace.xz
L1I D-JOLT instruction prefetcher has been constructed!
CPU 0 L1D next line prefetcher
Heartbeat CPU 0 instructions: 10000000 cycles: 3211790 heartbeat IPC: 3.11353 cumulative IPC: 3.11353 (Simulation time: 0 hr 3 min 53 sec) 
Heartbeat CPU 0 instructions: 20000001 cycles: 6412397 heartbeat IPC: 3.12441 cumulative IPC: 3.11896 (Simulation time: 0 hr 7 min 44 sec) 
Heartbeat CPU 0 instructions: 30000002 cycles: 9617041 heartbeat IPC: 3.12047 cumulative IPC: 3.11946 (Simulation time: 0 hr 11 min 1 sec) 
Heartbeat CPU 0 instructions: 40000002 cycles: 12817196 heartbeat IPC: 3.12485 cumulative IPC: 3.12081 (Simulation time: 0 hr 14 min 7 sec) 
Heartbeat CPU 0 instructions: 50000000 cycles: 16017290 heartbeat IPC: 3.12491 cumulative IPC: 3.12163 (Simulation time: 0 hr 17 min 7 sec) 

Warmup complete CPU 0 instructions: 50000004 cycles: 16017291 (Simulation time: 0 hr 17 min 7 sec) 

Heartbeat CPU 0 instructions: 60000000 cycles: 23567840 heartbeat IPC: 1.32441 cumulative IPC: 1.32441 (Simulation time: 0 hr 20 min 5 sec) 
Heartbeat CPU 0 instructions: 70000002 cycles: 31293878 heartbeat IPC: 1.29432 cumulative IPC: 1.30919 (Simulation time: 0 hr 23 min 0 sec) 
Heartbeat CPU 0 instructions: 80000003 cycles: 38474992 heartbeat IPC: 1.39254 cumulative IPC: 1.33584 (Simulation time: 0 hr 25 min 43 sec) 
Heartbeat CPU 0 instructions: 90000003 cycles: 45868141 heartbeat IPC: 1.3526 cumulative IPC: 1.34 (Simulation time: 0 hr 27 min 54 sec) 
Heartbeat CPU 0 instructions: 100000003 cycles: 53249305 heartbeat IPC: 1.3548 cumulative IPC: 1.34293 (Simulation time: 0 hr 29 min 25 sec) 
Finished CPU 0 instructions: 50000003 cycles: 37232015 cumulative IPC: 1.34293 (Simulation time: 0 hr 29 min 25 sec) 

ChampSim completed all CPUs

Region of Interest Statistics

CPU 0 cumulative IPC: 1.34293 instructions: 50000003 cycles: 37232015
L1D TOTAL     ACCESS:   17302599  HIT:   16236253  MISS:    1066346
L1D LOAD      ACCESS:    6307607  HIT:    5806280  MISS:     501327
L1D RFO       ACCESS:    4928764  HIT:    4848591  MISS:      80173
L1D PREFETCH  ACCESS:    6066228  HIT:    5581382  MISS:     484846
L1D WRITEBACK ACCESS:          0  HIT:          0  MISS:          0
L1D PREFETCH  REQUESTED:    6342484  ISSUED:    6248186  USEFUL:     133375  USELESS:     351480
L1D AVERAGE MISS LATENCY: 42.6583 cycles
L1I TOTAL     ACCESS:   17059701  HIT:   14739095  MISS:    2320606
L1I LOAD      ACCESS:    8723881  HIT:    8637360  MISS:      86521
L1I RFO       ACCESS:          0  HIT:          0  MISS:          0
L1I PREFETCH  ACCESS:    8335820  HIT:    6101735  MISS:    2234085
L1I WRITEBACK ACCESS:          0  HIT:          0  MISS:          0
L1I PREFETCH  REQUESTED:    9637757  ISSUED:    8693440  USEFUL:    1508235  USELESS:     725761
L1I AVERAGE MISS LATENCY: 29.8088 cycles
L2C TOTAL     ACCESS:    4442163  HIT:    3029318  MISS:    1412845
L2C LOAD      ACCESS:     530792  HIT:     238847  MISS:     291945
L2C RFO       ACCESS:      78833  HIT:      30193  MISS:      48640
L2C PREFETCH  ACCESS:    3556751  HIT:    2486229  MISS:    1070522
L2C WRITEBACK ACCESS:     275787  HIT:     274049  MISS:       1738
L2C PREFETCH  REQUESTED:    3303504  ISSUED:    3300070  USEFUL:      28033  USELESS:    1042586
L2C AVERAGE MISS LATENCY: 45.963 cycles
LLC TOTAL     ACCESS:    2573638  HIT:    2407104  MISS:     166534
LLC LOAD      ACCESS:     291849  HIT:     268487  MISS:      23362
LLC RFO       ACCESS:      48637  HIT:      38691  MISS:       9946
LLC PREFETCH  ACCESS:    2056438  HIT:    1923445  MISS:     132993
LLC WRITEBACK ACCESS:     176714  HIT:     176481  MISS:        233
LLC PREFETCH  REQUESTED:          0  ISSUED:          0  USEFUL:      12424  USELESS:     119473
LLC AVERAGE MISS LATENCY: 178.35 cycles
Major fault: 0 Minor fault: 6212
CPU 0 L1D next line prefetcher final stats

DRAM Statistics
 CHANNEL 0
 RQ ROW_BUFFER_HIT:      25665  ROW_BUFFER_MISS:     140618
 DBUS_CONGESTED:      70346
 WQ ROW_BUFFER_HIT:      11867  ROW_BUFFER_MISS:      51180  FULL:          0

 AVG_CONGESTED_CYCLE: 5

CPU 0 Branch Prediction Accuracy: 99.4114% MPKI: 1.0933 Average ROB Occupancy at Mispredict: 124.488

Branch types
NOT_BRANCH: 40713265 81.4265%
BRANCH_DIRECT_JUMP: 463701 0.927402%
BRANCH_INDIRECT: 146544 0.293088%
BRANCH_CONDITIONAL: 6981954 13.9639%
BRANCH_DIRECT_CALL: 665005 1.33001%
BRANCH_INDIRECT_CALL: 165152 0.330304%
BRANCH_RETURN: 864314 1.72863%
BRANCH_OTHER: 0 0%

