Initialize SIGNATURE TABLE
ST_SET: 1
ST_WAY: 256
ST_TAG_BIT: 16
ST_TAG_MASK: ffff

Initialize PATTERN TABLE
PT_SET: 512
PT_WAY: 4
SIG_DELTA_BIT: 7
C_SIG_BIT: 4
C_DELTA_BIT: 4

Initialize PREFETCH FILTER
FILTER_SET: 1024

*** ChampSim Multicore Out-of-Order Simulator ***

Warmup Instructions: 50000000
Simulation Instructions: 50000000
Number of CPUs: 1
LLC sets: 2048
LLC ways: 16
Off-chip DRAM Size: 4096 MB Channels: 1 Width: 64-bit Data Rate: 3200 MT/s

CPU 0 runs /home/ykhodke/ChampSim/dpc3_traces/server_016.champsimtrace.xz
CPU 0 EPI prefetcher
CPU 0 L1D next line prefetcher
Heartbeat CPU 0 instructions: 10000000 cycles: 3495854 heartbeat IPC: 2.86053 cumulative IPC: 2.86053 (Simulation time: 0 hr 4 min 11 sec) 
Heartbeat CPU 0 instructions: 20000000 cycles: 6991574 heartbeat IPC: 2.86064 cumulative IPC: 2.86059 (Simulation time: 0 hr 8 min 4 sec) 
Heartbeat CPU 0 instructions: 30000001 cycles: 10483293 heartbeat IPC: 2.86392 cumulative IPC: 2.8617 (Simulation time: 0 hr 11 min 51 sec) 
Heartbeat CPU 0 instructions: 40000000 cycles: 13781041 heartbeat IPC: 3.03237 cumulative IPC: 2.90254 (Simulation time: 0 hr 13 min 47 sec) 
Heartbeat CPU 0 instructions: 50000002 cycles: 17016506 heartbeat IPC: 3.09075 cumulative IPC: 2.93832 (Simulation time: 0 hr 15 min 11 sec) 

Warmup complete CPU 0 instructions: 50000002 cycles: 17016506 (Simulation time: 0 hr 15 min 11 sec) 

Heartbeat CPU 0 instructions: 60000001 cycles: 25039053 heartbeat IPC: 1.24649 cumulative IPC: 1.24649 (Simulation time: 0 hr 16 min 51 sec) 
Heartbeat CPU 0 instructions: 70000001 cycles: 32038138 heartbeat IPC: 1.42876 cumulative IPC: 1.33141 (Simulation time: 0 hr 21 min 5 sec) 
Heartbeat CPU 0 instructions: 80000000 cycles: 39150092 heartbeat IPC: 1.40608 cumulative IPC: 1.35541 (Simulation time: 0 hr 24 min 18 sec) 
Heartbeat CPU 0 instructions: 90000000 cycles: 46031888 heartbeat IPC: 1.45311 cumulative IPC: 1.37858 (Simulation time: 0 hr 27 min 27 sec) 
Heartbeat CPU 0 instructions: 100000000 cycles: 53045836 heartbeat IPC: 1.42573 cumulative IPC: 1.38776 (Simulation time: 0 hr 30 min 35 sec) 
Finished CPU 0 instructions: 50000002 cycles: 36029331 cumulative IPC: 1.38776 (Simulation time: 0 hr 30 min 35 sec) 

ChampSim completed all CPUs

Region of Interest Statistics

CPU 0 cumulative IPC: 1.38776 instructions: 50000002 cycles: 36029331
L1D TOTAL     ACCESS:   18135336  HIT:   16867924  MISS:    1267412
L1D LOAD      ACCESS:    6607058  HIT:    6034307  MISS:     572751
L1D RFO       ACCESS:    5199528  HIT:    4977664  MISS:     221864
L1D PREFETCH  ACCESS:    6328750  HIT:    5855953  MISS:     472797
L1D WRITEBACK ACCESS:          0  HIT:          0  MISS:          0
L1D PREFETCH  REQUESTED:    6648988  ISSUED:    6546993  USEFUL:     113775  USELESS:     359040
L1D AVERAGE MISS LATENCY: 22.9517 cycles
L1I TOTAL     ACCESS:   23755932  HIT:   21216429  MISS:    2539503
L1I LOAD      ACCESS:    9750430  HIT:    9428520  MISS:     321910
L1I RFO       ACCESS:          0  HIT:          0  MISS:          0
L1I PREFETCH  ACCESS:   14005502  HIT:   11787909  MISS:    2217593
L1I WRITEBACK ACCESS:          0  HIT:          0  MISS:          0
L1I PREFETCH  REQUESTED:   16215071  ISSUED:   16215071  USEFUL:    1799193  USELESS:     418437
L1I AVERAGE MISS LATENCY: 17.6557 cycles
L2C TOTAL     ACCESS:    5309831  HIT:    4799383  MISS:     510448
L2C LOAD      ACCESS:     761251  HIT:     626055  MISS:     135196
L2C RFO       ACCESS:     220498  HIT:     159852  MISS:      60646
L2C PREFETCH  ACCESS:    3899885  HIT:    3586503  MISS:     313382
L2C WRITEBACK ACCESS:     428197  HIT:     426973  MISS:       1224
L2C PREFETCH  REQUESTED:    4242718  ISSUED:    4236582  USEFUL:      24125  USELESS:     289091
L2C AVERAGE MISS LATENCY: 41.3257 cycles
LLC TOTAL     ACCESS:    1761160  HIT:    1721996  MISS:      39164
LLC LOAD      ACCESS:     135102  HIT:     130405  MISS:       4697
LLC RFO       ACCESS:      60645  HIT:      47196  MISS:      13449
LLC PREFETCH  ACCESS:    1467220  HIT:    1446385  MISS:      20835
LLC WRITEBACK ACCESS:      98193  HIT:      98010  MISS:        183
LLC PREFETCH  REQUESTED:          0  ISSUED:          0  USEFUL:       2162  USELESS:      18132
LLC AVERAGE MISS LATENCY: 173.891 cycles
Major fault: 0 Minor fault: 2365
CPU 0 L1I EPI prefetcher final stats
CPU 0 L1D next line prefetcher final stats

DRAM Statistics
 CHANNEL 0
 RQ ROW_BUFFER_HIT:      11752  ROW_BUFFER_MISS:      27225
 DBUS_CONGESTED:      23475
 WQ ROW_BUFFER_HIT:       1754  ROW_BUFFER_MISS:      14756  FULL:          0

 AVG_CONGESTED_CYCLE: 6

CPU 0 Branch Prediction Accuracy: 99.7225% MPKI: 0.50376 Average ROB Occupancy at Mispredict: 120.227

Branch types
NOT_BRANCH: 40923877 81.8478%
BRANCH_DIRECT_JUMP: 487044 0.974088%
BRANCH_INDIRECT: 169158 0.338316%
BRANCH_CONDITIONAL: 6640823 13.2816%
BRANCH_DIRECT_CALL: 755586 1.51117%
BRANCH_INDIRECT_CALL: 133962 0.267924%
BRANCH_RETURN: 889566 1.77913%
BRANCH_OTHER: 0 0%

