Initialize SIGNATURE TABLE
ST_SET: 1
ST_WAY: 256
ST_TAG_BIT: 16
ST_TAG_MASK: ffff

Initialize PATTERN TABLE
PT_SET: 512
PT_WAY: 4
SIG_DELTA_BIT: 7
C_SIG_BIT: 4
C_DELTA_BIT: 4

Initialize PREFETCH FILTER
FILTER_SET: 1024

*** ChampSim Multicore Out-of-Order Simulator ***

Warmup Instructions: 50000000
Simulation Instructions: 50000000
Number of CPUs: 1
LLC sets: 2048
LLC ways: 16
Off-chip DRAM Size: 4096 MB Channels: 1 Width: 64-bit Data Rate: 3200 MT/s

CPU 0 runs /home/ykhodke/ChampSim/dpc3_traces/server_027.champsimtrace.xz
LHT KB: 126.25
SCC KB: 1.56
Total KB: 127.81
CPU 0 L1D next line prefetcher
Heartbeat CPU 0 instructions: 10000001 cycles: 3530767 heartbeat IPC: 2.83225 cumulative IPC: 2.83225 (Simulation time: 0 hr 3 min 12 sec) 
Heartbeat CPU 0 instructions: 20000001 cycles: 7065953 heartbeat IPC: 2.82871 cumulative IPC: 2.83047 (Simulation time: 0 hr 6 min 14 sec) 
Heartbeat CPU 0 instructions: 30000002 cycles: 10595925 heartbeat IPC: 2.83288 cumulative IPC: 2.83128 (Simulation time: 0 hr 9 min 16 sec) 
Heartbeat CPU 0 instructions: 40000000 cycles: 14131772 heartbeat IPC: 2.82818 cumulative IPC: 2.8305 (Simulation time: 0 hr 12 min 18 sec) 
Heartbeat CPU 0 instructions: 50000001 cycles: 17660803 heartbeat IPC: 2.83364 cumulative IPC: 2.83113 (Simulation time: 0 hr 15 min 14 sec) 

Warmup complete CPU 0 instructions: 50000001 cycles: 17660803 (Simulation time: 0 hr 15 min 14 sec) 

Heartbeat CPU 0 instructions: 60000002 cycles: 24645755 heartbeat IPC: 1.43165 cumulative IPC: 1.43165 (Simulation time: 0 hr 18 min 27 sec) 
Heartbeat CPU 0 instructions: 70000003 cycles: 31589907 heartbeat IPC: 1.44006 cumulative IPC: 1.43584 (Simulation time: 0 hr 21 min 34 sec) 
Heartbeat CPU 0 instructions: 80000002 cycles: 38546954 heartbeat IPC: 1.43739 cumulative IPC: 1.43636 (Simulation time: 0 hr 24 min 34 sec) 
Heartbeat CPU 0 instructions: 90000001 cycles: 45577938 heartbeat IPC: 1.42228 cumulative IPC: 1.43281 (Simulation time: 0 hr 27 min 30 sec) 
Heartbeat CPU 0 instructions: 100000002 cycles: 52512419 heartbeat IPC: 1.44207 cumulative IPC: 1.43465 (Simulation time: 0 hr 29 min 23 sec) 
Finished CPU 0 instructions: 50000001 cycles: 34851616 cumulative IPC: 1.43465 (Simulation time: 0 hr 29 min 23 sec) 

ChampSim completed all CPUs

Region of Interest Statistics

CPU 0 cumulative IPC: 1.43465 instructions: 50000001 cycles: 34851616
L1D TOTAL     ACCESS:   20050181  HIT:   18448501  MISS:    1601680
L1D LOAD      ACCESS:    7022802  HIT:    6331507  MISS:     691295
L1D RFO       ACCESS:    6290616  HIT:    6005203  MISS:     285413
L1D PREFETCH  ACCESS:    6736763  HIT:    6111791  MISS:     624972
L1D WRITEBACK ACCESS:          0  HIT:          0  MISS:          0
L1D PREFETCH  REQUESTED:    7071002  ISSUED:    6946096  USEFUL:     150065  USELESS:     474919
L1D AVERAGE MISS LATENCY: 24.5612 cycles
L1I TOTAL     ACCESS:   25725632  HIT:   20018582  MISS:    5707050
L1I LOAD      ACCESS:    9368657  HIT:    8853411  MISS:     515246
L1I RFO       ACCESS:          0  HIT:          0  MISS:          0
L1I PREFETCH  ACCESS:   16356975  HIT:   11165171  MISS:    5191804
L1I WRITEBACK ACCESS:          0  HIT:          0  MISS:          0
L1I PREFETCH  REQUESTED:   19153058  ISSUED:   19153058  USEFUL:    2471644  USELESS:    2720096
L1I AVERAGE MISS LATENCY: 15.6448 cycles
L2C TOTAL     ACCESS:    9899772  HIT:    9069584  MISS:     830188
L2C LOAD      ACCESS:     771596  HIT:     625182  MISS:     146414
L2C RFO       ACCESS:     283341  HIT:     183388  MISS:      99953
L2C PREFETCH  ACCESS:    8285679  HIT:    7709905  MISS:     575774
L2C WRITEBACK ACCESS:     559156  HIT:     551109  MISS:       8047
L2C PREFETCH  REQUESTED:    5671956  ISSUED:    5664873  USEFUL:      20016  USELESS:     554932
L2C AVERAGE MISS LATENCY: 37.1088 cycles
LLC TOTAL     ACCESS:    2479931  HIT:    2448144  MISS:      31787
LLC LOAD      ACCESS:     146285  HIT:     143146  MISS:       3139
LLC RFO       ACCESS:      99950  HIT:      86031  MISS:      13919
LLC PREFETCH  ACCESS:    2066705  HIT:    2052122  MISS:      14583
LLC WRITEBACK ACCESS:     166991  HIT:     166845  MISS:        146
LLC PREFETCH  REQUESTED:          0  ISSUED:          0  USEFUL:       1060  USELESS:      13472
LLC AVERAGE MISS LATENCY: 186.844 cycles
Major fault: 0 Minor fault: 2492
CPU 0 L1D next line prefetcher final stats

DRAM Statistics
 CHANNEL 0
 RQ ROW_BUFFER_HIT:      10796  ROW_BUFFER_MISS:      20841
 DBUS_CONGESTED:      22306
 WQ ROW_BUFFER_HIT:       1504  ROW_BUFFER_MISS:      14176  FULL:          0

 AVG_CONGESTED_CYCLE: 6

CPU 0 Branch Prediction Accuracy: 99.8082% MPKI: 0.35064 Average ROB Occupancy at Mispredict: 172.455

Branch types
NOT_BRANCH: 40857507 81.715%
BRANCH_DIRECT_JUMP: 526635 1.05327%
BRANCH_INDIRECT: 205902 0.411804%
BRANCH_CONDITIONAL: 6184049 12.3681%
BRANCH_DIRECT_CALL: 938468 1.87694%
BRANCH_INDIRECT_CALL: 174486 0.348972%
BRANCH_RETURN: 1112959 2.22592%
BRANCH_OTHER: 0 0%

