Initialize SIGNATURE TABLE
ST_SET: 1
ST_WAY: 256
ST_TAG_BIT: 16
ST_TAG_MASK: ffff

Initialize PATTERN TABLE
PT_SET: 512
PT_WAY: 4
SIG_DELTA_BIT: 7
C_SIG_BIT: 4
C_DELTA_BIT: 4

Initialize PREFETCH FILTER
FILTER_SET: 1024

*** ChampSim Multicore Out-of-Order Simulator ***

Warmup Instructions: 50000000
Simulation Instructions: 50000000
Number of CPUs: 1
LLC sets: 2048
LLC ways: 16
Off-chip DRAM Size: 4096 MB Channels: 1 Width: 64-bit Data Rate: 3200 MT/s

CPU 0 runs /home/ykhodke/ChampSim/dpc3_traces/server_015.champsimtrace.xz
L1I D-JOLT instruction prefetcher has been constructed!
CPU 0 L1D next line prefetcher
Heartbeat CPU 0 instructions: 10000002 cycles: 3519423 heartbeat IPC: 2.84138 cumulative IPC: 2.84138 (Simulation time: 0 hr 2 min 31 sec) 
Heartbeat CPU 0 instructions: 20000001 cycles: 7107110 heartbeat IPC: 2.78731 cumulative IPC: 2.81408 (Simulation time: 0 hr 5 min 10 sec) 
Heartbeat CPU 0 instructions: 30000001 cycles: 10646096 heartbeat IPC: 2.82567 cumulative IPC: 2.81793 (Simulation time: 0 hr 7 min 52 sec) 
Heartbeat CPU 0 instructions: 40000002 cycles: 14194137 heartbeat IPC: 2.81846 cumulative IPC: 2.81807 (Simulation time: 0 hr 10 min 43 sec) 
Heartbeat CPU 0 instructions: 50000002 cycles: 17742397 heartbeat IPC: 2.81828 cumulative IPC: 2.81811 (Simulation time: 0 hr 13 min 35 sec) 

Warmup complete CPU 0 instructions: 50000002 cycles: 17742397 (Simulation time: 0 hr 13 min 35 sec) 

Heartbeat CPU 0 instructions: 60000002 cycles: 24041741 heartbeat IPC: 1.58747 cumulative IPC: 1.58747 (Simulation time: 0 hr 16 min 43 sec) 
Heartbeat CPU 0 instructions: 70000003 cycles: 30350810 heartbeat IPC: 1.58502 cumulative IPC: 1.58624 (Simulation time: 0 hr 19 min 54 sec) 
Heartbeat CPU 0 instructions: 80000000 cycles: 36659767 heartbeat IPC: 1.58505 cumulative IPC: 1.58584 (Simulation time: 0 hr 23 min 5 sec) 
Heartbeat CPU 0 instructions: 90000000 cycles: 42973015 heartbeat IPC: 1.58397 cumulative IPC: 1.58538 (Simulation time: 0 hr 25 min 53 sec) 
Heartbeat CPU 0 instructions: 100000002 cycles: 49282744 heartbeat IPC: 1.58485 cumulative IPC: 1.58527 (Simulation time: 0 hr 28 min 29 sec) 
Finished CPU 0 instructions: 50000000 cycles: 31540347 cumulative IPC: 1.58527 (Simulation time: 0 hr 28 min 29 sec) 

ChampSim completed all CPUs

Region of Interest Statistics

CPU 0 cumulative IPC: 1.58527 instructions: 50000000 cycles: 31540347
L1D TOTAL     ACCESS:   21829610  HIT:   21812838  MISS:      16772
L1D LOAD      ACCESS:    6691985  HIT:    6691450  MISS:        535
L1D RFO       ACCESS:    8561393  HIT:    8561298  MISS:         95
L1D PREFETCH  ACCESS:    6576232  HIT:    6560090  MISS:      16142
L1D WRITEBACK ACCESS:          0  HIT:          0  MISS:          0
L1D PREFETCH  REQUESTED:    6692045  ISSUED:    6580640  USEFUL:         83  USELESS:      16056
L1D AVERAGE MISS LATENCY: 16.6144 cycles
L1I TOTAL     ACCESS:   20923755  HIT:   16570859  MISS:    4352896
L1I LOAD      ACCESS:    9742861  HIT:    9670693  MISS:      72168
L1I RFO       ACCESS:          0  HIT:          0  MISS:          0
L1I PREFETCH  ACCESS:   11180894  HIT:    6900166  MISS:    4280728
L1I WRITEBACK ACCESS:          0  HIT:          0  MISS:          0
L1I PREFETCH  REQUESTED:   11904917  ISSUED:   11674205  USEFUL:    2887456  USELESS:    1393265
L1I AVERAGE MISS LATENCY: 14.41 cycles
L2C TOTAL     ACCESS:    6037348  HIT:    6037029  MISS:        319
L2C LOAD      ACCESS:      55662  HIT:      55595  MISS:         67
L2C RFO       ACCESS:         94  HIT:         88  MISS:          6
L2C PREFETCH  ACCESS:    5981242  HIT:    5980997  MISS:        245
L2C WRITEBACK ACCESS:        350  HIT:        349  MISS:          1
L2C PREFETCH  REQUESTED:    4387830  ISSUED:    4371978  USEFUL:        126  USELESS:        136
L2C AVERAGE MISS LATENCY: 233.016 cycles
LLC TOTAL     ACCESS:     824544  HIT:     823711  MISS:        833
LLC LOAD      ACCESS:         66  HIT:         50  MISS:         16
LLC RFO       ACCESS:          6  HIT:          5  MISS:          1
LLC PREFETCH  ACCESS:     824372  HIT:     823556  MISS:        816
LLC WRITEBACK ACCESS:        100  HIT:        100  MISS:          0
LLC PREFETCH  REQUESTED:          0  ISSUED:          0  USEFUL:          9  USELESS:        192
LLC AVERAGE MISS LATENCY: 668.659 cycles
Major fault: 0 Minor fault: 1892
CPU 0 L1D next line prefetcher final stats

DRAM Statistics
 CHANNEL 0
 RQ ROW_BUFFER_HIT:        200  ROW_BUFFER_MISS:        633
 DBUS_CONGESTED:        591
 WQ ROW_BUFFER_HIT:         81  ROW_BUFFER_MISS:        492  FULL:          0

 AVG_CONGESTED_CYCLE: 6

CPU 0 Branch Prediction Accuracy: 99.9085% MPKI: 0.15428 Average ROB Occupancy at Mispredict: 295.464

Branch types
NOT_BRANCH: 41573141 83.1463%
BRANCH_DIRECT_JUMP: 436254 0.872508%
BRANCH_INDIRECT: 0 0%
BRANCH_CONDITIONAL: 5395898 10.7918%
BRANCH_DIRECT_CALL: 1173391 2.34678%
BRANCH_INDIRECT_CALL: 123911 0.247822%
BRANCH_RETURN: 1297311 2.59462%
BRANCH_OTHER: 0 0%

