Initialize SIGNATURE TABLE
ST_SET: 1
ST_WAY: 256
ST_TAG_BIT: 16
ST_TAG_MASK: ffff

Initialize PATTERN TABLE
PT_SET: 512
PT_WAY: 4
SIG_DELTA_BIT: 7
C_SIG_BIT: 4
C_DELTA_BIT: 4

Initialize PREFETCH FILTER
FILTER_SET: 1024

*** ChampSim Multicore Out-of-Order Simulator ***

Warmup Instructions: 50000000
Simulation Instructions: 50000000
Number of CPUs: 1
LLC sets: 2048
LLC ways: 16
Off-chip DRAM Size: 4096 MB Channels: 1 Width: 64-bit Data Rate: 3200 MT/s

CPU 0 runs /home/ykhodke/ChampSim/dpc3_traces/server_013.champsimtrace.xz
CPU 0 EPI prefetcher
CPU 0 L1D next line prefetcher
Heartbeat CPU 0 instructions: 10000000 cycles: 3214361 heartbeat IPC: 3.11104 cumulative IPC: 3.11104 (Simulation time: 0 hr 3 min 54 sec) 
Heartbeat CPU 0 instructions: 20000001 cycles: 6418222 heartbeat IPC: 3.12123 cumulative IPC: 3.11613 (Simulation time: 0 hr 7 min 9 sec) 
Heartbeat CPU 0 instructions: 30000002 cycles: 9625111 heartbeat IPC: 3.11829 cumulative IPC: 3.11685 (Simulation time: 0 hr 10 min 20 sec) 
Heartbeat CPU 0 instructions: 40000002 cycles: 12828094 heartbeat IPC: 3.12209 cumulative IPC: 3.11816 (Simulation time: 0 hr 13 min 34 sec) 
Heartbeat CPU 0 instructions: 50000000 cycles: 16031107 heartbeat IPC: 3.12206 cumulative IPC: 3.11894 (Simulation time: 0 hr 16 min 54 sec) 

Warmup complete CPU 0 instructions: 50000004 cycles: 16031108 (Simulation time: 0 hr 16 min 54 sec) 

Heartbeat CPU 0 instructions: 60000002 cycles: 25071694 heartbeat IPC: 1.10612 cumulative IPC: 1.10612 (Simulation time: 0 hr 19 min 59 sec) 
Heartbeat CPU 0 instructions: 70000000 cycles: 34422113 heartbeat IPC: 1.06947 cumulative IPC: 1.08749 (Simulation time: 0 hr 23 min 24 sec) 
Heartbeat CPU 0 instructions: 80000003 cycles: 43115201 heartbeat IPC: 1.15034 cumulative IPC: 1.10766 (Simulation time: 0 hr 26 min 57 sec) 
Heartbeat CPU 0 instructions: 90000003 cycles: 51980436 heartbeat IPC: 1.128 cumulative IPC: 1.11268 (Simulation time: 0 hr 30 min 23 sec) 
Heartbeat CPU 0 instructions: 100000003 cycles: 60851462 heartbeat IPC: 1.12727 cumulative IPC: 1.11556 (Simulation time: 0 hr 32 min 39 sec) 
Finished CPU 0 instructions: 50000003 cycles: 44820355 cumulative IPC: 1.11556 (Simulation time: 0 hr 32 min 39 sec) 

ChampSim completed all CPUs

Region of Interest Statistics

CPU 0 cumulative IPC: 1.11556 instructions: 50000003 cycles: 44820355
L1D TOTAL     ACCESS:   17798076  HIT:   16731191  MISS:    1066885
L1D LOAD      ACCESS:    6541055  HIT:    6045753  MISS:     495302
L1D RFO       ACCESS:    4950083  HIT:    4869883  MISS:      80200
L1D PREFETCH  ACCESS:    6306938  HIT:    5815555  MISS:     491383
L1D WRITEBACK ACCESS:          0  HIT:          0  MISS:          0
L1D PREFETCH  REQUESTED:    6577228  ISSUED:    6477193  USEFUL:     139445  USELESS:     351947
L1D AVERAGE MISS LATENCY: 41.0284 cycles
L1I TOTAL     ACCESS:   22773993  HIT:   21023948  MISS:    1750045
L1I LOAD      ACCESS:    8588053  HIT:    8067241  MISS:     520812
L1I RFO       ACCESS:          0  HIT:          0  MISS:          0
L1I PREFETCH  ACCESS:   14185940  HIT:   12956707  MISS:    1229233
L1I WRITEBACK ACCESS:          0  HIT:          0  MISS:          0
L1I PREFETCH  REQUESTED:   15853001  ISSUED:   15853001  USEFUL:     905846  USELESS:     323347
L1I AVERAGE MISS LATENCY: 29.7446 cycles
L2C TOTAL     ACCESS:    3703333  HIT:    2395044  MISS:    1308289
L2C LOAD      ACCESS:     920525  HIT:     351498  MISS:     569027
L2C RFO       ACCESS:      78856  HIT:      31355  MISS:      47501
L2C PREFETCH  ACCESS:    2428128  HIT:    1738058  MISS:     690070
L2C WRITEBACK ACCESS:     275824  HIT:     274133  MISS:       1691
L2C PREFETCH  REQUESTED:    3679061  ISSUED:    3674797  USEFUL:      63382  USELESS:     626426
L2C AVERAGE MISS LATENCY: 43.4217 cycles
LLC TOTAL     ACCESS:    2791326  HIT:    2612730  MISS:     178596
LLC LOAD      ACCESS:     559133  HIT:     522276  MISS:      36857
LLC RFO       ACCESS:      47494  HIT:      37363  MISS:      10131
LLC PREFETCH  ACCESS:    2013268  HIT:    1882107  MISS:     131161
LLC WRITEBACK ACCESS:     171431  HIT:     170984  MISS:        447
LLC PREFETCH  REQUESTED:          0  ISSUED:          0  USEFUL:      23342  USELESS:     107362
LLC AVERAGE MISS LATENCY: 165.545 cycles
Major fault: 0 Minor fault: 6202
CPU 0 L1I EPI prefetcher final stats
CPU 0 L1D next line prefetcher final stats

DRAM Statistics
 CHANNEL 0
 RQ ROW_BUFFER_HIT:      29872  ROW_BUFFER_MISS:     148272
 DBUS_CONGESTED:      74352
 WQ ROW_BUFFER_HIT:      12172  ROW_BUFFER_MISS:      52418  FULL:          0

 AVG_CONGESTED_CYCLE: 5

CPU 0 Branch Prediction Accuracy: 99.4114% MPKI: 1.0933 Average ROB Occupancy at Mispredict: 98.1137

Branch types
NOT_BRANCH: 40713270 81.4265%
BRANCH_DIRECT_JUMP: 463701 0.927402%
BRANCH_INDIRECT: 146544 0.293088%
BRANCH_CONDITIONAL: 6981955 13.9639%
BRANCH_DIRECT_CALL: 665005 1.33001%
BRANCH_INDIRECT_CALL: 165152 0.330304%
BRANCH_RETURN: 864314 1.72863%
BRANCH_OTHER: 0 0%

