Initialize SIGNATURE TABLE
ST_SET: 1
ST_WAY: 256
ST_TAG_BIT: 16
ST_TAG_MASK: ffff

Initialize PATTERN TABLE
PT_SET: 512
PT_WAY: 4
SIG_DELTA_BIT: 7
C_SIG_BIT: 4
C_DELTA_BIT: 4

Initialize PREFETCH FILTER
FILTER_SET: 1024

*** ChampSim Multicore Out-of-Order Simulator ***

Warmup Instructions: 50000000
Simulation Instructions: 50000000
Number of CPUs: 1
LLC sets: 2048
LLC ways: 16
Off-chip DRAM Size: 4096 MB Channels: 1 Width: 64-bit Data Rate: 3200 MT/s

CPU 0 runs /home/ykhodke/ChampSim/dpc3_traces/server_009.champsimtrace.xz
LHT KB: 126.25
SCC KB: 1.56
Total KB: 127.81
CPU 0 L1D next line prefetcher
Heartbeat CPU 0 instructions: 10000003 cycles: 3203650 heartbeat IPC: 3.12144 cumulative IPC: 3.12144 (Simulation time: 0 hr 3 min 23 sec) 
Heartbeat CPU 0 instructions: 20000001 cycles: 6400705 heartbeat IPC: 3.12788 cumulative IPC: 3.12466 (Simulation time: 0 hr 6 min 19 sec) 
Heartbeat CPU 0 instructions: 30000002 cycles: 9611562 heartbeat IPC: 3.11443 cumulative IPC: 3.12124 (Simulation time: 0 hr 9 min 31 sec) 
Heartbeat CPU 0 instructions: 40000003 cycles: 12819875 heartbeat IPC: 3.1169 cumulative IPC: 3.12016 (Simulation time: 0 hr 12 min 28 sec) 
Heartbeat CPU 0 instructions: 50000000 cycles: 16084704 heartbeat IPC: 3.06295 cumulative IPC: 3.10854 (Simulation time: 0 hr 15 min 26 sec) 

Warmup complete CPU 0 instructions: 50000004 cycles: 16084705 (Simulation time: 0 hr 15 min 26 sec) 

Heartbeat CPU 0 instructions: 60000002 cycles: 31848739 heartbeat IPC: 0.634355 cumulative IPC: 0.634355 (Simulation time: 0 hr 19 min 29 sec) 
Heartbeat CPU 0 instructions: 70000003 cycles: 52941062 heartbeat IPC: 0.474106 cumulative IPC: 0.542647 (Simulation time: 0 hr 24 min 16 sec) 
Heartbeat CPU 0 instructions: 80000000 cycles: 60219040 heartbeat IPC: 1.37401 cumulative IPC: 0.679743 (Simulation time: 0 hr 26 min 48 sec) 
Heartbeat CPU 0 instructions: 90000001 cycles: 67645677 heartbeat IPC: 1.3465 cumulative IPC: 0.77578 (Simulation time: 0 hr 28 min 29 sec) 
Heartbeat CPU 0 instructions: 100000003 cycles: 74938676 heartbeat IPC: 1.37118 cumulative IPC: 0.84956 (Simulation time: 0 hr 29 min 32 sec) 
Finished CPU 0 instructions: 50000003 cycles: 58853972 cumulative IPC: 0.84956 (Simulation time: 0 hr 29 min 32 sec) 

ChampSim completed all CPUs

Region of Interest Statistics

CPU 0 cumulative IPC: 0.84956 instructions: 50000003 cycles: 58853972
L1D TOTAL     ACCESS:   21684715  HIT:   17104935  MISS:    4579780
L1D LOAD      ACCESS:    8657717  HIT:    6377706  MISS:    2280011
L1D RFO       ACCESS:    4583054  HIT:    4478536  MISS:     104518
L1D PREFETCH  ACCESS:    8443944  HIT:    6248693  MISS:    2195251
L1D WRITEBACK ACCESS:          0  HIT:          0  MISS:          0
L1D PREFETCH  REQUESTED:    8690528  ISSUED:    8593002  USEFUL:     106643  USELESS:    2088607
L1D AVERAGE MISS LATENCY: 20.4193 cycles
L1I TOTAL     ACCESS:   19758175  HIT:   17874107  MISS:    1884068
L1I LOAD      ACCESS:   10734309  HIT:   10502491  MISS:     231818
L1I RFO       ACCESS:          0  HIT:          0  MISS:          0
L1I PREFETCH  ACCESS:    9023866  HIT:    7371616  MISS:    1652250
L1I WRITEBACK ACCESS:          0  HIT:          0  MISS:          0
L1I PREFETCH  REQUESTED:   11454638  ISSUED:   11454638  USEFUL:     905511  USELESS:     746729
L1I AVERAGE MISS LATENCY: 25.5495 cycles
L2C TOTAL     ACCESS:    8399410  HIT:    7334343  MISS:    1065067
L2C LOAD      ACCESS:    2300824  HIT:    2080979  MISS:     219845
L2C RFO       ACCESS:     103517  HIT:      63370  MISS:      40147
L2C PREFETCH  ACCESS:    5738187  HIT:    4934739  MISS:     803448
L2C WRITEBACK ACCESS:     256882  HIT:     255255  MISS:       1627
L2C PREFETCH  REQUESTED:    7026501  ISSUED:    7023296  USEFUL:      21876  USELESS:     780438
L2C AVERAGE MISS LATENCY: 47.6201 cycles
LLC TOTAL     ACCESS:    2354655  HIT:    2219750  MISS:     134905
LLC LOAD      ACCESS:     219669  HIT:     200737  MISS:      18932
LLC RFO       ACCESS:      40138  HIT:      31073  MISS:       9065
LLC PREFETCH  ACCESS:    1956213  HIT:    1849480  MISS:     106733
LLC WRITEBACK ACCESS:     138635  HIT:     138460  MISS:        175
LLC PREFETCH  REQUESTED:          0  ISSUED:          0  USEFUL:       9539  USELESS:      95541
LLC AVERAGE MISS LATENCY: 174.604 cycles
Major fault: 0 Minor fault: 6378
CPU 0 L1D next line prefetcher final stats

DRAM Statistics
 CHANNEL 0
 RQ ROW_BUFFER_HIT:      25308  ROW_BUFFER_MISS:     109410
 DBUS_CONGESTED:      59799
 WQ ROW_BUFFER_HIT:       9082  ROW_BUFFER_MISS:      38302  FULL:          0

 AVG_CONGESTED_CYCLE: 5

CPU 0 Branch Prediction Accuracy: 99.4713% MPKI: 1.11484 Average ROB Occupancy at Mispredict: 112.553

Branch types
NOT_BRANCH: 39456615 78.9132%
BRANCH_DIRECT_JUMP: 445350 0.8907%
BRANCH_INDIRECT: 131149 0.262298%
BRANCH_CONDITIONAL: 8130196 16.2604%
BRANCH_DIRECT_CALL: 732485 1.46497%
BRANCH_INDIRECT_CALL: 172369 0.344738%
BRANCH_RETURN: 931558 1.86312%
BRANCH_OTHER: 0 0%

