Initialize SIGNATURE TABLE
ST_SET: 1
ST_WAY: 256
ST_TAG_BIT: 16
ST_TAG_MASK: ffff

Initialize PATTERN TABLE
PT_SET: 512
PT_WAY: 4
SIG_DELTA_BIT: 7
C_SIG_BIT: 4
C_DELTA_BIT: 4

Initialize PREFETCH FILTER
FILTER_SET: 1024

*** ChampSim Multicore Out-of-Order Simulator ***

Warmup Instructions: 50000000
Simulation Instructions: 50000000
Number of CPUs: 1
LLC sets: 2048
LLC ways: 16
Off-chip DRAM Size: 4096 MB Channels: 1 Width: 64-bit Data Rate: 3200 MT/s

CPU 0 runs /home/ykhodke/ChampSim/dpc3_traces/server_037.champsimtrace.xz
CPU 0 L1D next line prefetcher
Heartbeat CPU 0 instructions: 10000001 cycles: 3324384 heartbeat IPC: 3.00808 cumulative IPC: 3.00808 (Simulation time: 0 hr 0 min 14 sec) 
Heartbeat CPU 0 instructions: 20000002 cycles: 6646499 heartbeat IPC: 3.01013 cumulative IPC: 3.0091 (Simulation time: 0 hr 0 min 29 sec) 
Heartbeat CPU 0 instructions: 30000003 cycles: 10016512 heartbeat IPC: 2.96735 cumulative IPC: 2.99505 (Simulation time: 0 hr 0 min 45 sec) 
Heartbeat CPU 0 instructions: 40000000 cycles: 13340888 heartbeat IPC: 3.00808 cumulative IPC: 2.9983 (Simulation time: 0 hr 1 min 0 sec) 
Heartbeat CPU 0 instructions: 50000003 cycles: 16664251 heartbeat IPC: 3.009 cumulative IPC: 3.00044 (Simulation time: 0 hr 1 min 15 sec) 

Warmup complete CPU 0 instructions: 50000003 cycles: 16664251 (Simulation time: 0 hr 1 min 15 sec) 

Heartbeat CPU 0 instructions: 60000001 cycles: 27302965 heartbeat IPC: 0.939963 cumulative IPC: 0.939963 (Simulation time: 0 hr 1 min 28 sec) 
Heartbeat CPU 0 instructions: 70000000 cycles: 38019535 heartbeat IPC: 0.933134 cumulative IPC: 0.936536 (Simulation time: 0 hr 1 min 40 sec) 
Heartbeat CPU 0 instructions: 80000002 cycles: 48655719 heartbeat IPC: 0.940187 cumulative IPC: 0.93775 (Simulation time: 0 hr 1 min 53 sec) 
Heartbeat CPU 0 instructions: 90000002 cycles: 59312515 heartbeat IPC: 0.938368 cumulative IPC: 0.937904 (Simulation time: 0 hr 2 min 5 sec) 
*** Reached end of trace for Core: 0 Repeating trace: /home/ykhodke/ChampSim/dpc3_traces/server_037.champsimtrace.xz
Heartbeat CPU 0 instructions: 100000000 cycles: 69962104 heartbeat IPC: 0.939003 cumulative IPC: 0.938124 (Simulation time: 0 hr 2 min 18 sec) 
Finished CPU 0 instructions: 50000001 cycles: 53297854 cumulative IPC: 0.938124 (Simulation time: 0 hr 2 min 18 sec) 

ChampSim completed all CPUs

Region of Interest Statistics

CPU 0 cumulative IPC: 0.938124 instructions: 50000001 cycles: 53297854
L1D TOTAL     ACCESS:   22097776  HIT:   21117622  MISS:     980154
L1D LOAD      ACCESS:    7987133  HIT:    7499803  MISS:     487330
L1D RFO       ACCESS:    6285404  HIT:    6216762  MISS:      68642
L1D PREFETCH  ACCESS:    7825239  HIT:    7401057  MISS:     424182
L1D WRITEBACK ACCESS:          0  HIT:          0  MISS:          0
L1D PREFETCH  REQUESTED:    8033222  ISSUED:    7940536  USEFUL:     117148  USELESS:     307039
L1D AVERAGE MISS LATENCY: 28.6442 cycles
L1I TOTAL     ACCESS:    9467141  HIT:    5433222  MISS:    4033919
L1I LOAD      ACCESS:    9467141  HIT:    5433222  MISS:    4033919
L1I RFO       ACCESS:          0  HIT:          0  MISS:          0
L1I PREFETCH  ACCESS:          0  HIT:          0  MISS:          0
L1I WRITEBACK ACCESS:          0  HIT:          0  MISS:          0
L1I PREFETCH  REQUESTED:          0  ISSUED:          0  USEFUL:          0  USELESS:          0
L1I AVERAGE MISS LATENCY: 14.2728 cycles
L2C TOTAL     ACCESS:    9314154  HIT:    9001004  MISS:     313150
L2C LOAD      ACCESS:    4515707  HIT:    4368972  MISS:     146735
L2C RFO       ACCESS:      68453  HIT:      41246  MISS:      27207
L2C PREFETCH  ACCESS:    4439693  HIT:    4301417  MISS:     138276
L2C WRITEBACK ACCESS:     290301  HIT:     289369  MISS:        932
L2C PREFETCH  REQUESTED:    5911764  ISSUED:    5905440  USEFUL:       6997  USELESS:     131260
L2C AVERAGE MISS LATENCY: 45.6857 cycles
LLC TOTAL     ACCESS:    1698177  HIT:    1644663  MISS:      53514
LLC LOAD      ACCESS:     146686  HIT:     133005  MISS:      13681
LLC RFO       ACCESS:      27206  HIT:      22490  MISS:       4716
LLC PREFETCH  ACCESS:    1387379  HIT:    1352768  MISS:      34611
LLC WRITEBACK ACCESS:     136906  HIT:     136400  MISS:        506
LLC PREFETCH  REQUESTED:          0  ISSUED:          0  USEFUL:       3709  USELESS:      30975
LLC AVERAGE MISS LATENCY: 163.325 cycles
Major fault: 0 Minor fault: 5652
CPU 0 L1D next line prefetcher final stats

DRAM Statistics
 CHANNEL 0
 RQ ROW_BUFFER_HIT:       8550  ROW_BUFFER_MISS:      44458
 DBUS_CONGESTED:      24255
 WQ ROW_BUFFER_HIT:       1380  ROW_BUFFER_MISS:      10385  FULL:          0

 AVG_CONGESTED_CYCLE: 5

CPU 0 Branch Prediction Accuracy: 99.913% MPKI: 0.15656 Average ROB Occupancy at Mispredict: 32.0869

Branch types
NOT_BRANCH: 41001560 82.0031%
BRANCH_DIRECT_JUMP: 541940 1.08388%
BRANCH_INDIRECT: 59716 0.119432%
BRANCH_CONDITIONAL: 5916841 11.8337%
BRANCH_DIRECT_CALL: 1005458 2.01092%
BRANCH_INDIRECT_CALL: 234433 0.468866%
BRANCH_RETURN: 1239866 2.47973%
BRANCH_OTHER: 0 0%

