Initialize SIGNATURE TABLE
ST_SET: 1
ST_WAY: 256
ST_TAG_BIT: 16
ST_TAG_MASK: ffff

Initialize PATTERN TABLE
PT_SET: 512
PT_WAY: 4
SIG_DELTA_BIT: 7
C_SIG_BIT: 4
C_DELTA_BIT: 4

Initialize PREFETCH FILTER
FILTER_SET: 1024

*** ChampSim Multicore Out-of-Order Simulator ***

Warmup Instructions: 50000000
Simulation Instructions: 50000000
Number of CPUs: 1
LLC sets: 2048
LLC ways: 16
Off-chip DRAM Size: 4096 MB Channels: 1 Width: 64-bit Data Rate: 3200 MT/s

CPU 0 runs /home/ykhodke/ChampSim/dpc3_traces/server_018.champsimtrace.xz
LHT KB: 63.12
SCC KB: 1.56
Total KB: 64.69
CPU 0 L1D next line prefetcher
Heartbeat CPU 0 instructions: 10000003 cycles: 3616782 heartbeat IPC: 2.76489 cumulative IPC: 2.76489 (Simulation time: 0 hr 3 min 46 sec) 
Heartbeat CPU 0 instructions: 20000001 cycles: 7238561 heartbeat IPC: 2.76107 cumulative IPC: 2.76298 (Simulation time: 0 hr 7 min 29 sec) 
Heartbeat CPU 0 instructions: 30000003 cycles: 10714497 heartbeat IPC: 2.87692 cumulative IPC: 2.79995 (Simulation time: 0 hr 10 min 38 sec) 
Heartbeat CPU 0 instructions: 40000000 cycles: 14226813 heartbeat IPC: 2.84712 cumulative IPC: 2.81159 (Simulation time: 0 hr 13 min 47 sec) 
Heartbeat CPU 0 instructions: 50000003 cycles: 17844535 heartbeat IPC: 2.76417 cumulative IPC: 2.80198 (Simulation time: 0 hr 16 min 59 sec) 

Warmup complete CPU 0 instructions: 50000003 cycles: 17844535 (Simulation time: 0 hr 16 min 59 sec) 

Heartbeat CPU 0 instructions: 60000000 cycles: 35903568 heartbeat IPC: 0.553739 cumulative IPC: 0.553739 (Simulation time: 0 hr 21 min 9 sec) 
Heartbeat CPU 0 instructions: 70000001 cycles: 54133553 heartbeat IPC: 0.548547 cumulative IPC: 0.551131 (Simulation time: 0 hr 24 min 56 sec) 
Heartbeat CPU 0 instructions: 80000000 cycles: 72176837 heartbeat IPC: 0.554223 cumulative IPC: 0.552158 (Simulation time: 0 hr 28 min 18 sec) 
Heartbeat CPU 0 instructions: 90000002 cycles: 90330540 heartbeat IPC: 0.550852 cumulative IPC: 0.551831 (Simulation time: 0 hr 29 min 55 sec) 
Heartbeat CPU 0 instructions: 100000001 cycles: 108518232 heartbeat IPC: 0.549822 cumulative IPC: 0.551428 (Simulation time: 0 hr 30 min 30 sec) 
Finished CPU 0 instructions: 50000002 cycles: 90673698 cumulative IPC: 0.551428 (Simulation time: 0 hr 30 min 30 sec) 

ChampSim completed all CPUs

Region of Interest Statistics

CPU 0 cumulative IPC: 0.551428 instructions: 50000002 cycles: 90673698
L1D TOTAL     ACCESS:   18651952  HIT:   16434199  MISS:    2217753
L1D LOAD      ACCESS:    7046873  HIT:    6306862  MISS:     740011
L1D RFO       ACCESS:    5853844  HIT:    4901283  MISS:     952561
L1D PREFETCH  ACCESS:    5751235  HIT:    5226054  MISS:     525181
L1D WRITEBACK ACCESS:          0  HIT:          0  MISS:          0
L1D PREFETCH  REQUESTED:    7089191  ISSUED:    6885867  USEFUL:     185410  USELESS:     339860
L1D AVERAGE MISS LATENCY: 175.732 cycles
L1I TOTAL     ACCESS:   24095139  HIT:   20888391  MISS:    3206748
L1I LOAD      ACCESS:   10076075  HIT:    9860660  MISS:     215415
L1I RFO       ACCESS:          0  HIT:          0  MISS:          0
L1I PREFETCH  ACCESS:   14019064  HIT:   11027731  MISS:    2991333
L1I WRITEBACK ACCESS:          0  HIT:          0  MISS:          0
L1I PREFETCH  REQUESTED:   15584297  ISSUED:   15584291  USEFUL:    2191565  USELESS:     799727
L1I AVERAGE MISS LATENCY: 16.0061 cycles
L2C TOTAL     ACCESS:    7777521  HIT:    5919528  MISS:    1857993
L2C LOAD      ACCESS:     533621  HIT:     266931  MISS:     266690
L2C RFO       ACCESS:     951748  HIT:      19784  MISS:     931964
L2C PREFETCH  ACCESS:    5122098  HIT:    4464999  MISS:     657099
L2C WRITEBACK ACCESS:    1170054  HIT:    1167814  MISS:       2240
L2C PREFETCH  REQUESTED:    3570996  ISSUED:    3569803  USEFUL:      23772  USELESS:     634096
L2C AVERAGE MISS LATENCY: 216.47 cycles
LLC TOTAL     ACCESS:    3873312  HIT:    2461789  MISS:    1411523
LLC LOAD      ACCESS:     266684  HIT:     165559  MISS:     101125
LLC RFO       ACCESS:     931954  HIT:     138759  MISS:     793195
LLC PREFETCH  ACCESS:    1573435  HIT:    1057947  MISS:     515488
LLC WRITEBACK ACCESS:    1101239  HIT:    1099524  MISS:       1715
LLC PREFETCH  REQUESTED:          0  ISSUED:          0  USEFUL:      27033  USELESS:     488451
LLC AVERAGE MISS LATENCY: 277.248 cycles
Major fault: 0 Minor fault: 22450
CPU 0 L1D next line prefetcher final stats

DRAM Statistics
 CHANNEL 0
 RQ ROW_BUFFER_HIT:     389894  ROW_BUFFER_MISS:    1019685
 DBUS_CONGESTED:    1396837
 WQ ROW_BUFFER_HIT:     279484  ROW_BUFFER_MISS:     613886  FULL:          0

 AVG_CONGESTED_CYCLE: 6

CPU 0 Branch Prediction Accuracy: 99.7114% MPKI: 0.47678 Average ROB Occupancy at Mispredict: 210.956

Branch types
NOT_BRANCH: 41741008 83.482%
BRANCH_DIRECT_JUMP: 458652 0.917304%
BRANCH_INDIRECT: 48282 0.096564%
BRANCH_CONDITIONAL: 5930881 11.8618%
BRANCH_DIRECT_CALL: 744230 1.48846%
BRANCH_INDIRECT_CALL: 166336 0.332672%
BRANCH_RETURN: 910589 1.82118%
BRANCH_OTHER: 0 0%

