Initialize SIGNATURE TABLE
ST_SET: 1
ST_WAY: 256
ST_TAG_BIT: 16
ST_TAG_MASK: ffff

Initialize PATTERN TABLE
PT_SET: 512
PT_WAY: 4
SIG_DELTA_BIT: 7
C_SIG_BIT: 4
C_DELTA_BIT: 4

Initialize PREFETCH FILTER
FILTER_SET: 1024

*** ChampSim Multicore Out-of-Order Simulator ***

Warmup Instructions: 50000000
Simulation Instructions: 50000000
Number of CPUs: 1
LLC sets: 2048
LLC ways: 16
Off-chip DRAM Size: 4096 MB Channels: 1 Width: 64-bit Data Rate: 3200 MT/s

CPU 0 runs /home/ykhodke/ChampSim/dpc3_traces/server_003.champsimtrace.xz
L1I D-JOLT instruction prefetcher has been constructed!
CPU 0 L1D next line prefetcher
Heartbeat CPU 0 instructions: 10000002 cycles: 3218022 heartbeat IPC: 3.1075 cumulative IPC: 3.1075 (Simulation time: 0 hr 3 min 12 sec) 
Heartbeat CPU 0 instructions: 20000000 cycles: 6533507 heartbeat IPC: 3.01615 cumulative IPC: 3.06114 (Simulation time: 0 hr 5 min 48 sec) 
Heartbeat CPU 0 instructions: 30000000 cycles: 9738615 heartbeat IPC: 3.12002 cumulative IPC: 3.08052 (Simulation time: 0 hr 8 min 40 sec) 
Heartbeat CPU 0 instructions: 40000001 cycles: 13152849 heartbeat IPC: 2.92892 cumulative IPC: 3.04117 (Simulation time: 0 hr 11 min 49 sec) 
Heartbeat CPU 0 instructions: 50000003 cycles: 16871789 heartbeat IPC: 2.68894 cumulative IPC: 2.96353 (Simulation time: 0 hr 15 min 8 sec) 

Warmup complete CPU 0 instructions: 50000003 cycles: 16871789 (Simulation time: 0 hr 15 min 8 sec) 

Heartbeat CPU 0 instructions: 60000000 cycles: 25831751 heartbeat IPC: 1.11608 cumulative IPC: 1.11608 (Simulation time: 0 hr 18 min 3 sec) 
Heartbeat CPU 0 instructions: 70000003 cycles: 34946023 heartbeat IPC: 1.09718 cumulative IPC: 1.10655 (Simulation time: 0 hr 20 min 33 sec) 
Heartbeat CPU 0 instructions: 80000000 cycles: 44910047 heartbeat IPC: 1.00361 cumulative IPC: 1.06997 (Simulation time: 0 hr 23 min 15 sec) 
Heartbeat CPU 0 instructions: 90000003 cycles: 54824230 heartbeat IPC: 1.00866 cumulative IPC: 1.05395 (Simulation time: 0 hr 25 min 51 sec) 
Heartbeat CPU 0 instructions: 100000001 cycles: 65205822 heartbeat IPC: 0.963243 cumulative IPC: 1.03447 (Simulation time: 0 hr 27 min 47 sec) 
Finished CPU 0 instructions: 50000002 cycles: 48334034 cumulative IPC: 1.03447 (Simulation time: 0 hr 27 min 47 sec) 

ChampSim completed all CPUs

Region of Interest Statistics

CPU 0 cumulative IPC: 1.03447 instructions: 50000002 cycles: 48334034
L1D TOTAL     ACCESS:   19961583  HIT:   18820832  MISS:    1140751
L1D LOAD      ACCESS:    7836636  HIT:    7306616  MISS:     530020
L1D RFO       ACCESS:    4550184  HIT:    4432780  MISS:     117404
L1D PREFETCH  ACCESS:    7574763  HIT:    7081436  MISS:     493327
L1D WRITEBACK ACCESS:          0  HIT:          0  MISS:          0
L1D PREFETCH  REQUESTED:    7896596  ISSUED:    7805137  USEFUL:     155188  USELESS:     338098
L1D AVERAGE MISS LATENCY: 55.0222 cycles
L1I TOTAL     ACCESS:   15699642  HIT:   14121235  MISS:    1578407
L1I LOAD      ACCESS:    9310241  HIT:    9207189  MISS:     103052
L1I RFO       ACCESS:          0  HIT:          0  MISS:          0
L1I PREFETCH  ACCESS:    6389401  HIT:    4914046  MISS:    1475355
L1I WRITEBACK ACCESS:          0  HIT:          0  MISS:          0
L1I PREFETCH  REQUESTED:    7050608  ISSUED:    6752318  USEFUL:     935278  USELESS:     540284
L1I AVERAGE MISS LATENCY: 34.6374 cycles
L2C TOTAL     ACCESS:    3697162  HIT:    2695901  MISS:    1001261
L2C LOAD      ACCESS:     580621  HIT:     323728  MISS:     256893
L2C RFO       ACCESS:     114657  HIT:      40160  MISS:      74497
L2C PREFETCH  ACCESS:    2717621  HIT:    2048638  MISS:     668983
L2C WRITEBACK ACCESS:     284263  HIT:     283375  MISS:        888
L2C PREFETCH  REQUESTED:    2403872  ISSUED:    2401952  USEFUL:      32317  USELESS:     634174
L2C AVERAGE MISS LATENCY: 79.4243 cycles
LLC TOTAL     ACCESS:    1874294  HIT:    1504183  MISS:     370111
LLC LOAD      ACCESS:     256676  HIT:     188477  MISS:      68199
LLC RFO       ACCESS:      74491  HIT:      32375  MISS:      42116
LLC PREFETCH  ACCESS:    1378067  HIT:    1119568  MISS:     258499
LLC WRITEBACK ACCESS:     165060  HIT:     163763  MISS:       1297
LLC PREFETCH  REQUESTED:          0  ISSUED:          0  USEFUL:      34147  USELESS:     214480
LLC AVERAGE MISS LATENCY: 190.028 cycles
Major fault: 0 Minor fault: 7776
CPU 0 L1D next line prefetcher final stats

DRAM Statistics
 CHANNEL 0
 RQ ROW_BUFFER_HIT:      78647  ROW_BUFFER_MISS:     290110
 DBUS_CONGESTED:     179536
 WQ ROW_BUFFER_HIT:      23899  ROW_BUFFER_MISS:      78307  FULL:          0

 AVG_CONGESTED_CYCLE: 5

CPU 0 Branch Prediction Accuracy: 95.439% MPKI: 9.02702 Average ROB Occupancy at Mispredict: 69.0607

Branch types
NOT_BRANCH: 40104088 80.2082%
BRANCH_DIRECT_JUMP: 497928 0.995856%
BRANCH_INDIRECT: 130587 0.261174%
BRANCH_CONDITIONAL: 7219018 14.438%
BRANCH_DIRECT_CALL: 625807 1.25161%
BRANCH_INDIRECT_CALL: 389787 0.779574%
BRANCH_RETURN: 1032747 2.06549%
BRANCH_OTHER: 0 0%

