Initialize SIGNATURE TABLE
ST_SET: 1
ST_WAY: 256
ST_TAG_BIT: 16
ST_TAG_MASK: ffff

Initialize PATTERN TABLE
PT_SET: 512
PT_WAY: 4
SIG_DELTA_BIT: 7
C_SIG_BIT: 4
C_DELTA_BIT: 4

Initialize PREFETCH FILTER
FILTER_SET: 1024

*** ChampSim Multicore Out-of-Order Simulator ***

Warmup Instructions: 50000000
Simulation Instructions: 50000000
Number of CPUs: 1
LLC sets: 2048
LLC ways: 16
Off-chip DRAM Size: 4096 MB Channels: 1 Width: 64-bit Data Rate: 3200 MT/s

CPU 0 runs /home/ykhodke/ChampSim/dpc3_traces/server_018.champsimtrace.xz
L1I D-JOLT instruction prefetcher has been constructed!
CPU 0 L1D next line prefetcher
Heartbeat CPU 0 instructions: 10000003 cycles: 3616386 heartbeat IPC: 2.76519 cumulative IPC: 2.76519 (Simulation time: 0 hr 3 min 31 sec) 
Heartbeat CPU 0 instructions: 20000001 cycles: 7237931 heartbeat IPC: 2.76125 cumulative IPC: 2.76322 (Simulation time: 0 hr 6 min 40 sec) 
Heartbeat CPU 0 instructions: 30000003 cycles: 10713410 heartbeat IPC: 2.8773 cumulative IPC: 2.80023 (Simulation time: 0 hr 9 min 35 sec) 
Heartbeat CPU 0 instructions: 40000000 cycles: 14225902 heartbeat IPC: 2.84698 cumulative IPC: 2.81177 (Simulation time: 0 hr 12 min 38 sec) 
Heartbeat CPU 0 instructions: 50000003 cycles: 17843711 heartbeat IPC: 2.7641 cumulative IPC: 2.80211 (Simulation time: 0 hr 15 min 40 sec) 

Warmup complete CPU 0 instructions: 50000003 cycles: 17843711 (Simulation time: 0 hr 15 min 40 sec) 

Heartbeat CPU 0 instructions: 60000000 cycles: 35249661 heartbeat IPC: 0.574516 cumulative IPC: 0.574516 (Simulation time: 0 hr 19 min 40 sec) 
Heartbeat CPU 0 instructions: 70000001 cycles: 52760791 heartbeat IPC: 0.571065 cumulative IPC: 0.572785 (Simulation time: 0 hr 23 min 39 sec) 
Heartbeat CPU 0 instructions: 80000001 cycles: 70207278 heartbeat IPC: 0.573181 cumulative IPC: 0.572917 (Simulation time: 0 hr 27 min 18 sec) 
Heartbeat CPU 0 instructions: 90000002 cycles: 87723237 heartbeat IPC: 0.570908 cumulative IPC: 0.572414 (Simulation time: 0 hr 29 min 34 sec) 
Heartbeat CPU 0 instructions: 100000001 cycles: 105263001 heartbeat IPC: 0.570133 cumulative IPC: 0.571956 (Simulation time: 0 hr 30 min 33 sec) 
Finished CPU 0 instructions: 50000002 cycles: 87419292 cumulative IPC: 0.571956 (Simulation time: 0 hr 30 min 33 sec) 

ChampSim completed all CPUs

Region of Interest Statistics

CPU 0 cumulative IPC: 0.571956 instructions: 50000002 cycles: 87419292
L1D TOTAL     ACCESS:   18619857  HIT:   16402198  MISS:    2217659
L1D LOAD      ACCESS:    7044349  HIT:    6319447  MISS:     724902
L1D RFO       ACCESS:    5810053  HIT:    4857706  MISS:     952347
L1D PREFETCH  ACCESS:    5765455  HIT:    5225045  MISS:     540410
L1D WRITEBACK ACCESS:          0  HIT:          0  MISS:          0
L1D PREFETCH  REQUESTED:    7085633  ISSUED:    6883589  USEFUL:     200674  USELESS:     339825
L1D AVERAGE MISS LATENCY: 178.346 cycles
L1I TOTAL     ACCESS:   18715565  HIT:   15114352  MISS:    3601213
L1I LOAD      ACCESS:   10153402  HIT:   10105561  MISS:      47841
L1I RFO       ACCESS:          0  HIT:          0  MISS:          0
L1I PREFETCH  ACCESS:    8562163  HIT:    5008791  MISS:    3553372
L1I WRITEBACK ACCESS:          0  HIT:          0  MISS:          0
L1I PREFETCH  REQUESTED:    9178532  ISSUED:    9112334  USEFUL:    2769591  USELESS:     783682
L1I AVERAGE MISS LATENCY: 17.8507 cycles
L2C TOTAL     ACCESS:    8551382  HIT:    6687318  MISS:    1864064
L2C LOAD      ACCESS:     545195  HIT:     278306  MISS:     266889
L2C RFO       ACCESS:     951697  HIT:      19758  MISS:     931939
L2C PREFETCH  ACCESS:    5884483  HIT:    5222127  MISS:     662356
L2C WRITEBACK ACCESS:    1170007  HIT:    1167127  MISS:       2880
L2C PREFETCH  REQUESTED:    5163570  ISSUED:    5158960  USEFUL:      21338  USELESS:     642136
L2C AVERAGE MISS LATENCY: 217.198 cycles
LLC TOTAL     ACCESS:    4244926  HIT:    2809685  MISS:    1435241
LLC LOAD      ACCESS:     266867  HIT:     168802  MISS:      98065
LLC RFO       ACCESS:     931936  HIT:     136341  MISS:     795595
LLC PREFETCH  ACCESS:    1944300  HIT:    1404695  MISS:     539605
LLC WRITEBACK ACCESS:    1101823  HIT:    1099847  MISS:       1976
LLC PREFETCH  REQUESTED:          0  ISSUED:          0  USEFUL:      29943  USELESS:     510054
LLC AVERAGE MISS LATENCY: 287.48 cycles
Major fault: 0 Minor fault: 22444
CPU 0 L1D next line prefetcher final stats

DRAM Statistics
 CHANNEL 0
 RQ ROW_BUFFER_HIT:     403659  ROW_BUFFER_MISS:    1029352
 DBUS_CONGESTED:    1447452
 WQ ROW_BUFFER_HIT:     255701  ROW_BUFFER_MISS:     640392  FULL:          0

 AVG_CONGESTED_CYCLE: 6

CPU 0 Branch Prediction Accuracy: 99.7114% MPKI: 0.47678 Average ROB Occupancy at Mispredict: 212.574

Branch types
NOT_BRANCH: 41740997 83.482%
BRANCH_DIRECT_JUMP: 458652 0.917304%
BRANCH_INDIRECT: 48282 0.096564%
BRANCH_CONDITIONAL: 5930880 11.8618%
BRANCH_DIRECT_CALL: 744230 1.48846%
BRANCH_INDIRECT_CALL: 166336 0.332672%
BRANCH_RETURN: 910589 1.82118%
BRANCH_OTHER: 0 0%

