Initialize SIGNATURE TABLE
ST_SET: 1
ST_WAY: 256
ST_TAG_BIT: 16
ST_TAG_MASK: ffff

Initialize PATTERN TABLE
PT_SET: 512
PT_WAY: 4
SIG_DELTA_BIT: 7
C_SIG_BIT: 4
C_DELTA_BIT: 4

Initialize PREFETCH FILTER
FILTER_SET: 1024

*** ChampSim Multicore Out-of-Order Simulator ***

Warmup Instructions: 50000000
Simulation Instructions: 50000000
Number of CPUs: 1
LLC sets: 2048
LLC ways: 16
Off-chip DRAM Size: 4096 MB Channels: 1 Width: 64-bit Data Rate: 3200 MT/s

CPU 0 runs /home/ykhodke/ChampSim/dpc3_traces/server_017.champsimtrace.xz
L1I D-JOLT instruction prefetcher has been constructed!
CPU 0 L1D next line prefetcher
Heartbeat CPU 0 instructions: 10000001 cycles: 3622753 heartbeat IPC: 2.76033 cumulative IPC: 2.76033 (Simulation time: 0 hr 3 min 22 sec) 
Heartbeat CPU 0 instructions: 20000000 cycles: 7243413 heartbeat IPC: 2.76193 cumulative IPC: 2.76113 (Simulation time: 0 hr 6 min 50 sec) 
Heartbeat CPU 0 instructions: 30000002 cycles: 10870662 heartbeat IPC: 2.75691 cumulative IPC: 2.75972 (Simulation time: 0 hr 10 min 21 sec) 
Heartbeat CPU 0 instructions: 40000000 cycles: 14493120 heartbeat IPC: 2.76056 cumulative IPC: 2.75993 (Simulation time: 0 hr 13 min 37 sec) 
Heartbeat CPU 0 instructions: 50000001 cycles: 18126541 heartbeat IPC: 2.75223 cumulative IPC: 2.75839 (Simulation time: 0 hr 16 min 37 sec) 

Warmup complete CPU 0 instructions: 50000001 cycles: 18126541 (Simulation time: 0 hr 16 min 37 sec) 

Heartbeat CPU 0 instructions: 60000002 cycles: 35697811 heartbeat IPC: 0.569111 cumulative IPC: 0.569111 (Simulation time: 0 hr 20 min 46 sec) 
Heartbeat CPU 0 instructions: 70000002 cycles: 53442100 heartbeat IPC: 0.563562 cumulative IPC: 0.566323 (Simulation time: 0 hr 24 min 54 sec) 
Heartbeat CPU 0 instructions: 80000000 cycles: 70948892 heartbeat IPC: 0.571207 cumulative IPC: 0.567941 (Simulation time: 0 hr 27 min 54 sec) 
Heartbeat CPU 0 instructions: 90000002 cycles: 94281728 heartbeat IPC: 0.428581 cumulative IPC: 0.525243 (Simulation time: 0 hr 29 min 22 sec) 
Heartbeat CPU 0 instructions: 100000003 cycles: 114298377 heartbeat IPC: 0.499584 cumulative IPC: 0.519903 (Simulation time: 0 hr 29 min 57 sec) 
Finished CPU 0 instructions: 50000002 cycles: 96171836 cumulative IPC: 0.519903 (Simulation time: 0 hr 29 min 57 sec) 

ChampSim completed all CPUs

Region of Interest Statistics

CPU 0 cumulative IPC: 0.519903 instructions: 50000002 cycles: 96171836
L1D TOTAL     ACCESS:   18375729  HIT:   16210204  MISS:    2165525
L1D LOAD      ACCESS:    7026375  HIT:    6279188  MISS:     747187
L1D RFO       ACCESS:    5516863  HIT:    4657551  MISS:     859312
L1D PREFETCH  ACCESS:    5832491  HIT:    5273465  MISS:     559026
L1D WRITEBACK ACCESS:          0  HIT:          0  MISS:          0
L1D PREFETCH  REQUESTED:    7063012  ISSUED:    6873258  USEFUL:     196702  USELESS:     362385
L1D AVERAGE MISS LATENCY: 175.949 cycles
L1I TOTAL     ACCESS:   17198427  HIT:   14493218  MISS:    2705209
L1I LOAD      ACCESS:    9890570  HIT:    9852218  MISS:      38352
L1I RFO       ACCESS:          0  HIT:          0  MISS:          0
L1I PREFETCH  ACCESS:    7307857  HIT:    4641000  MISS:    2666857
L1I WRITEBACK ACCESS:          0  HIT:          0  MISS:          0
L1I PREFETCH  REQUESTED:    7926689  ISSUED:    7906349  USEFUL:    2313396  USELESS:     353459
L1I AVERAGE MISS LATENCY: 18.0934 cycles
L2C TOTAL     ACCESS:    7188263  HIT:    5338655  MISS:    1849608
L2C LOAD      ACCESS:     569214  HIT:     240839  MISS:     328375
L2C RFO       ACCESS:     858732  HIT:      17894  MISS:     840838
L2C PREFETCH  ACCESS:    4637422  HIT:    3958917  MISS:     678505
L2C WRITEBACK ACCESS:    1122895  HIT:    1121005  MISS:       1890
L2C PREFETCH  REQUESTED:    4243863  ISSUED:    4240583  USEFUL:      20937  USELESS:     658250
L2C AVERAGE MISS LATENCY: 210.624 cycles
LLC TOTAL     ACCESS:    4125644  HIT:    2579072  MISS:    1546572
LLC LOAD      ACCESS:     328294  HIT:     172840  MISS:     155454
LLC RFO       ACCESS:     840838  HIT:     121924  MISS:     718914
LLC PREFETCH  ACCESS:    1895136  HIT:    1225089  MISS:     670047
LLC WRITEBACK ACCESS:    1061376  HIT:    1059219  MISS:       2157
LLC PREFETCH  REQUESTED:          0  ISSUED:          0  USEFUL:      49005  USELESS:     620070
LLC AVERAGE MISS LATENCY: 266.052 cycles
Major fault: 0 Minor fault: 24698
CPU 0 L1D next line prefetcher final stats

DRAM Statistics
 CHANNEL 0
 RQ ROW_BUFFER_HIT:     377533  ROW_BUFFER_MISS:    1166652
 DBUS_CONGESTED:    1485522
 WQ ROW_BUFFER_HIT:     253926  ROW_BUFFER_MISS:     624763  FULL:          0

 AVG_CONGESTED_CYCLE: 6

CPU 0 Branch Prediction Accuracy: 99.2833% MPKI: 1.20568 Average ROB Occupancy at Mispredict: 182.269

Branch types
NOT_BRANCH: 41588346 83.1767%
BRANCH_DIRECT_JUMP: 464501 0.929002%
BRANCH_INDIRECT: 45704 0.091408%
BRANCH_CONDITIONAL: 6147408 12.2948%
BRANCH_DIRECT_CALL: 675450 1.3509%
BRANCH_INDIRECT_CALL: 201532 0.403064%
BRANCH_RETURN: 876985 1.75397%
BRANCH_OTHER: 0 0%

