Initialize SIGNATURE TABLE
ST_SET: 1
ST_WAY: 256
ST_TAG_BIT: 16
ST_TAG_MASK: ffff

Initialize PATTERN TABLE
PT_SET: 512
PT_WAY: 4
SIG_DELTA_BIT: 7
C_SIG_BIT: 4
C_DELTA_BIT: 4

Initialize PREFETCH FILTER
FILTER_SET: 1024

*** ChampSim Multicore Out-of-Order Simulator ***

Warmup Instructions: 50000000
Simulation Instructions: 50000000
Number of CPUs: 1
LLC sets: 2048
LLC ways: 16
Off-chip DRAM Size: 4096 MB Channels: 1 Width: 64-bit Data Rate: 3200 MT/s

CPU 0 runs /home/ykhodke/ChampSim/dpc3_traces/server_015.champsimtrace.xz
L1I D-JOLT instruction prefetcher has been constructed!
CPU 0 L1D next line prefetcher
Heartbeat CPU 0 instructions: 10000002 cycles: 3519434 heartbeat IPC: 2.84137 cumulative IPC: 2.84137 (Simulation time: 0 hr 2 min 35 sec) 
Heartbeat CPU 0 instructions: 20000001 cycles: 7107133 heartbeat IPC: 2.7873 cumulative IPC: 2.81407 (Simulation time: 0 hr 5 min 16 sec) 
Heartbeat CPU 0 instructions: 30000001 cycles: 10646111 heartbeat IPC: 2.82567 cumulative IPC: 2.81793 (Simulation time: 0 hr 7 min 58 sec) 
Heartbeat CPU 0 instructions: 40000002 cycles: 14194152 heartbeat IPC: 2.81846 cumulative IPC: 2.81806 (Simulation time: 0 hr 10 min 41 sec) 
Heartbeat CPU 0 instructions: 50000002 cycles: 17742412 heartbeat IPC: 2.81828 cumulative IPC: 2.81811 (Simulation time: 0 hr 13 min 25 sec) 

Warmup complete CPU 0 instructions: 50000002 cycles: 17742412 (Simulation time: 0 hr 13 min 25 sec) 

Heartbeat CPU 0 instructions: 60000002 cycles: 24039978 heartbeat IPC: 1.58792 cumulative IPC: 1.58792 (Simulation time: 0 hr 16 min 16 sec) 
Heartbeat CPU 0 instructions: 70000003 cycles: 30348843 heartbeat IPC: 1.58507 cumulative IPC: 1.58649 (Simulation time: 0 hr 19 min 9 sec) 
Heartbeat CPU 0 instructions: 80000000 cycles: 36657673 heartbeat IPC: 1.58508 cumulative IPC: 1.58602 (Simulation time: 0 hr 22 min 4 sec) 
Heartbeat CPU 0 instructions: 90000000 cycles: 42969131 heartbeat IPC: 1.58442 cumulative IPC: 1.58562 (Simulation time: 0 hr 25 min 5 sec) 
Heartbeat CPU 0 instructions: 100000002 cycles: 49278685 heartbeat IPC: 1.5849 cumulative IPC: 1.58548 (Simulation time: 0 hr 27 min 31 sec) 
Finished CPU 0 instructions: 50000000 cycles: 31536273 cumulative IPC: 1.58548 (Simulation time: 0 hr 27 min 31 sec) 

ChampSim completed all CPUs

Region of Interest Statistics

CPU 0 cumulative IPC: 1.58548 instructions: 50000000 cycles: 31536273
L1D TOTAL     ACCESS:   21829746  HIT:   21812980  MISS:      16766
L1D LOAD      ACCESS:    6692147  HIT:    6691616  MISS:        531
L1D RFO       ACCESS:    8561346  HIT:    8561251  MISS:         95
L1D PREFETCH  ACCESS:    6576253  HIT:    6560113  MISS:      16140
L1D WRITEBACK ACCESS:          0  HIT:          0  MISS:          0
L1D PREFETCH  REQUESTED:    6692204  ISSUED:    6580650  USEFUL:         82  USELESS:      16055
L1D AVERAGE MISS LATENCY: 16.685 cycles
L1I TOTAL     ACCESS:   19195328  HIT:   15494281  MISS:    3701047
L1I LOAD      ACCESS:    9800593  HIT:    9787832  MISS:      12761
L1I RFO       ACCESS:          0  HIT:          0  MISS:          0
L1I PREFETCH  ACCESS:    9394735  HIT:    5706449  MISS:    3688286
L1I WRITEBACK ACCESS:          0  HIT:          0  MISS:          0
L1I PREFETCH  REQUESTED:    9686602  ISSUED:    9666767  USEFUL:    2701523  USELESS:     986745
L1I AVERAGE MISS LATENCY: 14.3886 cycles
L2C TOTAL     ACCESS:    5067581  HIT:    5067265  MISS:        316
L2C LOAD      ACCESS:      13217  HIT:      13149  MISS:         68
L2C RFO       ACCESS:         94  HIT:         89  MISS:          5
L2C PREFETCH  ACCESS:    5053922  HIT:    5053679  MISS:        243
L2C WRITEBACK ACCESS:        348  HIT:        348  MISS:          0
L2C PREFETCH  REQUESTED:    3548277  ISSUED:    3548183  USEFUL:        133  USELESS:        140
L2C AVERAGE MISS LATENCY: 134.592 cycles
LLC TOTAL     ACCESS:     747371  HIT:     746687  MISS:        684
LLC LOAD      ACCESS:         68  HIT:         53  MISS:         15
LLC RFO       ACCESS:          5  HIT:          4  MISS:          1
LLC PREFETCH  ACCESS:     747217  HIT:     746549  MISS:        668
LLC WRITEBACK ACCESS:         81  HIT:         81  MISS:          0
LLC PREFETCH  REQUESTED:          0  ISSUED:          0  USEFUL:          9  USELESS:        129
LLC AVERAGE MISS LATENCY: 489.401 cycles
Major fault: 0 Minor fault: 1892
CPU 0 L1D next line prefetcher final stats

DRAM Statistics
 CHANNEL 0
 RQ ROW_BUFFER_HIT:        130  ROW_BUFFER_MISS:        554
 DBUS_CONGESTED:        455
 WQ ROW_BUFFER_HIT:         84  ROW_BUFFER_MISS:        419  FULL:          0

 AVG_CONGESTED_CYCLE: 6

CPU 0 Branch Prediction Accuracy: 99.9085% MPKI: 0.15428 Average ROB Occupancy at Mispredict: 297.286

Branch types
NOT_BRANCH: 41573150 83.1463%
BRANCH_DIRECT_JUMP: 436254 0.872508%
BRANCH_INDIRECT: 0 0%
BRANCH_CONDITIONAL: 5395898 10.7918%
BRANCH_DIRECT_CALL: 1173391 2.34678%
BRANCH_INDIRECT_CALL: 123912 0.247824%
BRANCH_RETURN: 1297311 2.59462%
BRANCH_OTHER: 0 0%

