Initialize SIGNATURE TABLE
ST_SET: 1
ST_WAY: 256
ST_TAG_BIT: 16
ST_TAG_MASK: ffff

Initialize PATTERN TABLE
PT_SET: 512
PT_WAY: 4
SIG_DELTA_BIT: 7
C_SIG_BIT: 4
C_DELTA_BIT: 4

Initialize PREFETCH FILTER
FILTER_SET: 1024

*** ChampSim Multicore Out-of-Order Simulator ***

Warmup Instructions: 50000000
Simulation Instructions: 50000000
Number of CPUs: 1
LLC sets: 2048
LLC ways: 16
Off-chip DRAM Size: 4096 MB Channels: 1 Width: 64-bit Data Rate: 3200 MT/s

CPU 0 runs /home/ykhodke/ChampSim/dpc3_traces/server_031.champsimtrace.xz
L1I D-JOLT instruction prefetcher has been constructed!
CPU 0 L1D next line prefetcher
Heartbeat CPU 0 instructions: 10000003 cycles: 3522426 heartbeat IPC: 2.83895 cumulative IPC: 2.83895 (Simulation time: 0 hr 3 min 8 sec) 
Heartbeat CPU 0 instructions: 20000002 cycles: 7043914 heartbeat IPC: 2.83971 cumulative IPC: 2.83933 (Simulation time: 0 hr 6 min 14 sec) 
Heartbeat CPU 0 instructions: 30000002 cycles: 10565703 heartbeat IPC: 2.83947 cumulative IPC: 2.83938 (Simulation time: 0 hr 9 min 23 sec) 
Heartbeat CPU 0 instructions: 40000003 cycles: 14082225 heartbeat IPC: 2.84372 cumulative IPC: 2.84046 (Simulation time: 0 hr 13 min 6 sec) 
Heartbeat CPU 0 instructions: 50000001 cycles: 17601079 heartbeat IPC: 2.84183 cumulative IPC: 2.84073 (Simulation time: 0 hr 16 min 34 sec) 

Warmup complete CPU 0 instructions: 50000001 cycles: 17601079 (Simulation time: 0 hr 16 min 34 sec) 

Heartbeat CPU 0 instructions: 60000001 cycles: 25076380 heartbeat IPC: 1.33774 cumulative IPC: 1.33774 (Simulation time: 0 hr 19 min 35 sec) 
Heartbeat CPU 0 instructions: 70000002 cycles: 32609090 heartbeat IPC: 1.32754 cumulative IPC: 1.33262 (Simulation time: 0 hr 22 min 36 sec) 
*** Reached end of trace for Core: 0 Repeating trace: /home/ykhodke/ChampSim/dpc3_traces/server_031.champsimtrace.xz
Heartbeat CPU 0 instructions: 80000000 cycles: 40001291 heartbeat IPC: 1.35278 cumulative IPC: 1.33927 (Simulation time: 0 hr 25 min 36 sec) 
Heartbeat CPU 0 instructions: 90000003 cycles: 47430559 heartbeat IPC: 1.34603 cumulative IPC: 1.34096 (Simulation time: 0 hr 28 min 15 sec) 
Heartbeat CPU 0 instructions: 100000000 cycles: 54829124 heartbeat IPC: 1.35161 cumulative IPC: 1.34307 (Simulation time: 0 hr 29 min 34 sec) 
Finished CPU 0 instructions: 50000000 cycles: 37228047 cumulative IPC: 1.34307 (Simulation time: 0 hr 29 min 34 sec) 

ChampSim completed all CPUs

Region of Interest Statistics

CPU 0 cumulative IPC: 1.34307 instructions: 50000000 cycles: 37228047
L1D TOTAL     ACCESS:   19506919  HIT:   17602569  MISS:    1904350
L1D LOAD      ACCESS:    6760559  HIT:    5888245  MISS:     872314
L1D RFO       ACCESS:    6327012  HIT:    6035754  MISS:     291258
L1D PREFETCH  ACCESS:    6419348  HIT:    5678570  MISS:     740778
L1D WRITEBACK ACCESS:          0  HIT:          0  MISS:          0
L1D PREFETCH  REQUESTED:    6821378  ISSUED:    6707351  USEFUL:     174995  USELESS:     565787
L1D AVERAGE MISS LATENCY: 22.8362 cycles
L1I TOTAL     ACCESS:   17082871  HIT:   13574907  MISS:    3507964
L1I LOAD      ACCESS:    9735060  HIT:    9697900  MISS:      37160
L1I RFO       ACCESS:          0  HIT:          0  MISS:          0
L1I PREFETCH  ACCESS:    7347811  HIT:    3877007  MISS:    3470804
L1I WRITEBACK ACCESS:          0  HIT:          0  MISS:          0
L1I PREFETCH  REQUESTED:    7861090  ISSUED:    7755655  USEFUL:    3013845  USELESS:     456965
L1I AVERAGE MISS LATENCY: 18.0864 cycles
L2C TOTAL     ACCESS:    7835717  HIT:    7192983  MISS:     642734
L2C LOAD      ACCESS:     858964  HIT:     726856  MISS:     132108
L2C RFO       ACCESS:     289338  HIT:     244672  MISS:      44666
L2C PREFETCH  ACCESS:    6070483  HIT:    5605962  MISS:     464521
L2C WRITEBACK ACCESS:     616932  HIT:     615493  MISS:       1439
L2C PREFETCH  REQUESTED:    6109176  ISSUED:    6086938  USEFUL:       4726  USELESS:     459196
L2C AVERAGE MISS LATENCY: 44.3015 cycles
LLC TOTAL     ACCESS:    2652717  HIT:    2564360  MISS:      88357
LLC LOAD      ACCESS:     132073  HIT:     113099  MISS:      18974
LLC RFO       ACCESS:      44666  HIT:      40471  MISS:       4195
LLC PREFETCH  ACCESS:    2389890  HIT:    2325353  MISS:      64537
LLC WRITEBACK ACCESS:      86088  HIT:      85437  MISS:        651
LLC PREFETCH  REQUESTED:          0  ISSUED:          0  USEFUL:       2835  USELESS:      61386
LLC AVERAGE MISS LATENCY: 162.262 cycles
Major fault: 0 Minor fault: 6047
CPU 0 L1D next line prefetcher final stats

DRAM Statistics
 CHANNEL 0
 RQ ROW_BUFFER_HIT:      24497  ROW_BUFFER_MISS:      63203
 DBUS_CONGESTED:      36218
 WQ ROW_BUFFER_HIT:        833  ROW_BUFFER_MISS:       5298  FULL:          0

 AVG_CONGESTED_CYCLE: 5

CPU 0 Branch Prediction Accuracy: 99.6894% MPKI: 0.58048 Average ROB Occupancy at Mispredict: 141.295

Branch types
NOT_BRANCH: 40655676 81.3114%
BRANCH_DIRECT_JUMP: 546483 1.09297%
BRANCH_INDIRECT: 172433 0.344866%
BRANCH_CONDITIONAL: 6207598 12.4152%
BRANCH_DIRECT_CALL: 1018497 2.03699%
BRANCH_INDIRECT_CALL: 190373 0.380746%
BRANCH_RETURN: 1208856 2.41771%
BRANCH_OTHER: 0 0%

