Initialize SIGNATURE TABLE
ST_SET: 1
ST_WAY: 256
ST_TAG_BIT: 16
ST_TAG_MASK: ffff

Initialize PATTERN TABLE
PT_SET: 512
PT_WAY: 4
SIG_DELTA_BIT: 7
C_SIG_BIT: 4
C_DELTA_BIT: 4

Initialize PREFETCH FILTER
FILTER_SET: 1024

*** ChampSim Multicore Out-of-Order Simulator ***

Warmup Instructions: 50000000
Simulation Instructions: 50000000
Number of CPUs: 1
LLC sets: 2048
LLC ways: 16
Off-chip DRAM Size: 4096 MB Channels: 1 Width: 64-bit Data Rate: 3200 MT/s

CPU 0 runs /home/ykhodke/ChampSim/dpc3_traces/server_009.champsimtrace.xz
L1I D-JOLT instruction prefetcher has been constructed!
CPU 0 L1D next line prefetcher
Heartbeat CPU 0 instructions: 10000003 cycles: 3196287 heartbeat IPC: 3.12863 cumulative IPC: 3.12863 (Simulation time: 0 hr 2 min 42 sec) 
Heartbeat CPU 0 instructions: 20000001 cycles: 6385604 heartbeat IPC: 3.13547 cumulative IPC: 3.13205 (Simulation time: 0 hr 5 min 21 sec) 
Heartbeat CPU 0 instructions: 30000001 cycles: 9589798 heartbeat IPC: 3.12091 cumulative IPC: 3.12832 (Simulation time: 0 hr 7 min 56 sec) 
Heartbeat CPU 0 instructions: 40000003 cycles: 12790123 heartbeat IPC: 3.12468 cumulative IPC: 3.12741 (Simulation time: 0 hr 10 min 29 sec) 
Heartbeat CPU 0 instructions: 50000000 cycles: 16047415 heartbeat IPC: 3.07003 cumulative IPC: 3.11577 (Simulation time: 0 hr 13 min 2 sec) 

Warmup complete CPU 0 instructions: 50000004 cycles: 16047416 (Simulation time: 0 hr 13 min 2 sec) 

Heartbeat CPU 0 instructions: 60000002 cycles: 31997035 heartbeat IPC: 0.626974 cumulative IPC: 0.626974 (Simulation time: 0 hr 16 min 27 sec) 
Heartbeat CPU 0 instructions: 70000003 cycles: 53223308 heartbeat IPC: 0.471114 cumulative IPC: 0.537983 (Simulation time: 0 hr 20 min 25 sec) 
Heartbeat CPU 0 instructions: 80000000 cycles: 60649062 heartbeat IPC: 1.34666 cumulative IPC: 0.672621 (Simulation time: 0 hr 22 min 54 sec) 
Heartbeat CPU 0 instructions: 90000001 cycles: 68174252 heartbeat IPC: 1.32887 cumulative IPC: 0.767359 (Simulation time: 0 hr 25 min 13 sec) 
Heartbeat CPU 0 instructions: 100000003 cycles: 75551539 heartbeat IPC: 1.35551 cumulative IPC: 0.840278 (Simulation time: 0 hr 27 min 0 sec) 
Finished CPU 0 instructions: 50000003 cycles: 59504124 cumulative IPC: 0.840278 (Simulation time: 0 hr 27 min 0 sec) 

ChampSim completed all CPUs

Region of Interest Statistics

CPU 0 cumulative IPC: 0.840278 instructions: 50000003 cycles: 59504124
L1D TOTAL     ACCESS:   21719444  HIT:   17139862  MISS:    4579582
L1D LOAD      ACCESS:    8673385  HIT:    6394126  MISS:    2279259
L1D RFO       ACCESS:    4585446  HIT:    4480982  MISS:     104464
L1D PREFETCH  ACCESS:    8460613  HIT:    6264754  MISS:    2195859
L1D WRITEBACK ACCESS:          0  HIT:          0  MISS:          0
L1D PREFETCH  REQUESTED:    8705752  ISSUED:    8607896  USEFUL:     107359  USELESS:    2088499
L1D AVERAGE MISS LATENCY: 20.3236 cycles
L1I TOTAL     ACCESS:   15793071  HIT:   14356443  MISS:    1436628
L1I LOAD      ACCESS:   10738660  HIT:   10560857  MISS:     177803
L1I RFO       ACCESS:          0  HIT:          0  MISS:          0
L1I PREFETCH  ACCESS:    5054411  HIT:    3795586  MISS:    1258825
L1I WRITEBACK ACCESS:          0  HIT:          0  MISS:          0
L1I PREFETCH  REQUESTED:    5277577  ISSUED:    5224152  USEFUL:     947796  USELESS:     311039
L1I AVERAGE MISS LATENCY: 30.6901 cycles
L2C TOTAL     ACCESS:    7789276  HIT:    6741810  MISS:    1047466
L2C LOAD      ACCESS:    2383793  HIT:    2108807  MISS:     274986
L2C RFO       ACCESS:     103467  HIT:      63658  MISS:      39809
L2C PREFETCH  ACCESS:    5045164  HIT:    4313743  MISS:     731421
L2C WRITEBACK ACCESS:     256852  HIT:     255602  MISS:       1250
L2C PREFETCH  REQUESTED:    6134448  ISSUED:    6132402  USEFUL:      37685  USELESS:     692387
L2C AVERAGE MISS LATENCY: 45.7384 cycles
LLC TOTAL     ACCESS:    2256970  HIT:    2125629  MISS:     131341
LLC LOAD      ACCESS:     274688  HIT:     252265  MISS:      22423
LLC RFO       ACCESS:      39803  HIT:      30955  MISS:       8848
LLC PREFETCH  ACCESS:    1806309  HIT:    1706434  MISS:      99875
LLC WRITEBACK ACCESS:     136170  HIT:     135975  MISS:        195
LLC PREFETCH  REQUESTED:          0  ISSUED:          0  USEFUL:      15191  USELESS:      83878
LLC AVERAGE MISS LATENCY: 169.722 cycles
Major fault: 0 Minor fault: 6363
CPU 0 L1D next line prefetcher final stats

DRAM Statistics
 CHANNEL 0
 RQ ROW_BUFFER_HIT:      24468  ROW_BUFFER_MISS:     106666
 DBUS_CONGESTED:      54917
 WQ ROW_BUFFER_HIT:       9019  ROW_BUFFER_MISS:      37311  FULL:          0

 AVG_CONGESTED_CYCLE: 5

CPU 0 Branch Prediction Accuracy: 99.4713% MPKI: 1.11484 Average ROB Occupancy at Mispredict: 110.165

Branch types
NOT_BRANCH: 39456615 78.9132%
BRANCH_DIRECT_JUMP: 445350 0.8907%
BRANCH_INDIRECT: 131149 0.262298%
BRANCH_CONDITIONAL: 8130196 16.2604%
BRANCH_DIRECT_CALL: 732485 1.46497%
BRANCH_INDIRECT_CALL: 172369 0.344738%
BRANCH_RETURN: 931558 1.86312%
BRANCH_OTHER: 0 0%

