Initialize SIGNATURE TABLE
ST_SET: 1
ST_WAY: 256
ST_TAG_BIT: 16
ST_TAG_MASK: ffff

Initialize PATTERN TABLE
PT_SET: 512
PT_WAY: 4
SIG_DELTA_BIT: 7
C_SIG_BIT: 4
C_DELTA_BIT: 4

Initialize PREFETCH FILTER
FILTER_SET: 1024

*** ChampSim Multicore Out-of-Order Simulator ***

Warmup Instructions: 50000000
Simulation Instructions: 50000000
Number of CPUs: 1
LLC sets: 2048
LLC ways: 16
Off-chip DRAM Size: 4096 MB Channels: 1 Width: 64-bit Data Rate: 3200 MT/s

CPU 0 runs /home/ykhodke/ChampSim/dpc3_traces/server_023.champsimtrace.xz
L1I D-JOLT instruction prefetcher has been constructed!
CPU 0 L1D next line prefetcher
Heartbeat CPU 0 instructions: 10000000 cycles: 3497483 heartbeat IPC: 2.8592 cumulative IPC: 2.8592 (Simulation time: 0 hr 3 min 12 sec) 
Heartbeat CPU 0 instructions: 20000000 cycles: 6994713 heartbeat IPC: 2.85941 cumulative IPC: 2.8593 (Simulation time: 0 hr 6 min 23 sec) 
Heartbeat CPU 0 instructions: 30000001 cycles: 10485728 heartbeat IPC: 2.8645 cumulative IPC: 2.86103 (Simulation time: 0 hr 9 min 48 sec) 
Heartbeat CPU 0 instructions: 40000003 cycles: 13983529 heartbeat IPC: 2.85894 cumulative IPC: 2.86051 (Simulation time: 0 hr 13 min 19 sec) 
Heartbeat CPU 0 instructions: 50000001 cycles: 17482509 heartbeat IPC: 2.85798 cumulative IPC: 2.86 (Simulation time: 0 hr 16 min 23 sec) 

Warmup complete CPU 0 instructions: 50000001 cycles: 17482509 (Simulation time: 0 hr 16 min 23 sec) 

Heartbeat CPU 0 instructions: 60000002 cycles: 24208174 heartbeat IPC: 1.48684 cumulative IPC: 1.48684 (Simulation time: 0 hr 19 min 33 sec) 
Heartbeat CPU 0 instructions: 70000002 cycles: 31144754 heartbeat IPC: 1.44163 cumulative IPC: 1.46389 (Simulation time: 0 hr 22 min 42 sec) 
Heartbeat CPU 0 instructions: 80000000 cycles: 37991331 heartbeat IPC: 1.46058 cumulative IPC: 1.46279 (Simulation time: 0 hr 25 min 41 sec) 
Heartbeat CPU 0 instructions: 90000000 cycles: 44880416 heartbeat IPC: 1.45157 cumulative IPC: 1.45997 (Simulation time: 0 hr 27 min 54 sec) 
Heartbeat CPU 0 instructions: 100000001 cycles: 51701483 heartbeat IPC: 1.46605 cumulative IPC: 1.46118 (Simulation time: 0 hr 29 min 31 sec) 
Finished CPU 0 instructions: 50000000 cycles: 34218974 cumulative IPC: 1.46118 (Simulation time: 0 hr 29 min 31 sec) 

ChampSim completed all CPUs

Region of Interest Statistics

CPU 0 cumulative IPC: 1.46118 instructions: 50000000 cycles: 34218974
L1D TOTAL     ACCESS:   19337844  HIT:   17871079  MISS:    1466765
L1D LOAD      ACCESS:    6838669  HIT:    6178124  MISS:     660545
L1D RFO       ACCESS:    5981993  HIT:    5720729  MISS:     261264
L1D PREFETCH  ACCESS:    6517182  HIT:    5972226  MISS:     544956
L1D WRITEBACK ACCESS:          0  HIT:          0  MISS:          0
L1D PREFETCH  REQUESTED:    6889996  ISSUED:    6769016  USEFUL:     130388  USELESS:     414576
L1D AVERAGE MISS LATENCY: 24.7625 cycles
L1I TOTAL     ACCESS:   15384496  HIT:   12424899  MISS:    2959597
L1I LOAD      ACCESS:    9454086  HIT:    9416116  MISS:      37970
L1I RFO       ACCESS:          0  HIT:          0  MISS:          0
L1I PREFETCH  ACCESS:    5930410  HIT:    3008783  MISS:    2921627
L1I WRITEBACK ACCESS:          0  HIT:          0  MISS:          0
L1I PREFETCH  REQUESTED:    6238285  ISSUED:    6149563  USEFUL:    2417216  USELESS:     504405
L1I AVERAGE MISS LATENCY: 19.5052 cycles
L2C TOTAL     ACCESS:    6171752  HIT:    5402084  MISS:     769668
L2C LOAD      ACCESS:     637216  HIT:     507809  MISS:     129407
L2C RFO       ACCESS:     259433  HIT:     178089  MISS:      81344
L2C PREFETCH  ACCESS:    4775857  HIT:    4221994  MISS:     553863
L2C WRITEBACK ACCESS:     499246  HIT:     494192  MISS:       5054
L2C PREFETCH  REQUESTED:    4199591  ISSUED:    4195729  USEFUL:      13986  USELESS:     540080
L2C AVERAGE MISS LATENCY: 40.4246 cycles
LLC TOTAL     ACCESS:    2055526  HIT:    2005628  MISS:      49898
LLC LOAD      ACCESS:     129271  HIT:     123209  MISS:       6062
LLC RFO       ACCESS:      81340  HIT:      63370  MISS:      17970
LLC PREFETCH  ACCESS:    1704145  HIT:    1678572  MISS:      25573
LLC WRITEBACK ACCESS:     140770  HIT:     140477  MISS:        293
LLC PREFETCH  REQUESTED:          0  ISSUED:          0  USEFUL:       2348  USELESS:      23203
LLC AVERAGE MISS LATENCY: 183.071 cycles
Major fault: 0 Minor fault: 2775
CPU 0 L1D next line prefetcher final stats

DRAM Statistics
 CHANNEL 0
 RQ ROW_BUFFER_HIT:      15004  ROW_BUFFER_MISS:      34583
 DBUS_CONGESTED:      31599
 WQ ROW_BUFFER_HIT:       2388  ROW_BUFFER_MISS:      19179  FULL:          0

 AVG_CONGESTED_CYCLE: 6

CPU 0 Branch Prediction Accuracy: 99.6798% MPKI: 0.58608 Average ROB Occupancy at Mispredict: 147.971

Branch types
NOT_BRANCH: 40848342 81.6967%
BRANCH_DIRECT_JUMP: 548373 1.09675%
BRANCH_INDIRECT: 189802 0.379604%
BRANCH_CONDITIONAL: 6372772 12.7455%
BRANCH_DIRECT_CALL: 862207 1.72441%
BRANCH_INDIRECT_CALL: 158149 0.316298%
BRANCH_RETURN: 1020345 2.04069%
BRANCH_OTHER: 0 0%

