Initialize SIGNATURE TABLE
ST_SET: 1
ST_WAY: 256
ST_TAG_BIT: 16
ST_TAG_MASK: ffff

Initialize PATTERN TABLE
PT_SET: 512
PT_WAY: 4
SIG_DELTA_BIT: 7
C_SIG_BIT: 4
C_DELTA_BIT: 4

Initialize PREFETCH FILTER
FILTER_SET: 1024

*** ChampSim Multicore Out-of-Order Simulator ***

Warmup Instructions: 50000000
Simulation Instructions: 50000000
Number of CPUs: 1
LLC sets: 2048
LLC ways: 16
Off-chip DRAM Size: 4096 MB Channels: 1 Width: 64-bit Data Rate: 3200 MT/s

CPU 0 runs /home/ykhodke/ChampSim/dpc3_traces/server_017.champsimtrace.xz
LHT KB: 63.12
SCC KB: 1.56
Total KB: 64.69
CPU 0 L1D next line prefetcher
Heartbeat CPU 0 instructions: 10000001 cycles: 3623075 heartbeat IPC: 2.76009 cumulative IPC: 2.76009 (Simulation time: 0 hr 3 min 1 sec) 
Heartbeat CPU 0 instructions: 20000000 cycles: 7243628 heartbeat IPC: 2.76201 cumulative IPC: 2.76105 (Simulation time: 0 hr 6 min 10 sec) 
Heartbeat CPU 0 instructions: 30000002 cycles: 10871104 heartbeat IPC: 2.75674 cumulative IPC: 2.75961 (Simulation time: 0 hr 9 min 38 sec) 
Heartbeat CPU 0 instructions: 40000000 cycles: 14493604 heartbeat IPC: 2.76052 cumulative IPC: 2.75984 (Simulation time: 0 hr 13 min 58 sec) 
Heartbeat CPU 0 instructions: 50000001 cycles: 18126992 heartbeat IPC: 2.75225 cumulative IPC: 2.75832 (Simulation time: 0 hr 18 min 7 sec) 

Warmup complete CPU 0 instructions: 50000001 cycles: 18126992 (Simulation time: 0 hr 18 min 7 sec) 

Heartbeat CPU 0 instructions: 60000002 cycles: 36171934 heartbeat IPC: 0.554172 cumulative IPC: 0.554172 (Simulation time: 0 hr 23 min 26 sec) 
Heartbeat CPU 0 instructions: 70000002 cycles: 54436427 heartbeat IPC: 0.54751 cumulative IPC: 0.550821 (Simulation time: 0 hr 27 min 19 sec) 
Heartbeat CPU 0 instructions: 80000000 cycles: 72422718 heartbeat IPC: 0.555979 cumulative IPC: 0.55253 (Simulation time: 0 hr 29 min 41 sec) 
Heartbeat CPU 0 instructions: 90000002 cycles: 96060958 heartbeat IPC: 0.423043 cumulative IPC: 0.513255 (Simulation time: 0 hr 30 min 44 sec) 
Heartbeat CPU 0 instructions: 100000003 cycles: 116507226 heartbeat IPC: 0.489087 cumulative IPC: 0.508232 (Simulation time: 0 hr 31 min 14 sec) 
Finished CPU 0 instructions: 50000002 cycles: 98380234 cumulative IPC: 0.508232 (Simulation time: 0 hr 31 min 14 sec) 

ChampSim completed all CPUs

Region of Interest Statistics

CPU 0 cumulative IPC: 0.508232 instructions: 50000002 cycles: 98380234
L1D TOTAL     ACCESS:   18402009  HIT:   16236444  MISS:    2165565
L1D LOAD      ACCESS:    7027499  HIT:    6269957  MISS:     757542
L1D RFO       ACCESS:    5550969  HIT:    4691512  MISS:     859457
L1D PREFETCH  ACCESS:    5823541  HIT:    5274975  MISS:     548566
L1D WRITEBACK ACCESS:          0  HIT:          0  MISS:          0
L1D PREFETCH  REQUESTED:    7066245  ISSUED:    6876177  USEFUL:     186193  USELESS:     362434
L1D AVERAGE MISS LATENCY: 175.31 cycles
L1I TOTAL     ACCESS:   22696642  HIT:   19979054  MISS:    2717588
L1I LOAD      ACCESS:    9846841  HIT:    9659289  MISS:     187552
L1I RFO       ACCESS:          0  HIT:          0  MISS:          0
L1I PREFETCH  ACCESS:   12849801  HIT:   10319765  MISS:    2530036
L1I WRITEBACK ACCESS:          0  HIT:          0  MISS:          0
L1I PREFETCH  REQUESTED:   14391664  ISSUED:   14391664  USEFUL:    1940677  USELESS:     589343
L1I AVERAGE MISS LATENCY: 16.5414 cycles
L2C TOTAL     ACCESS:    7015863  HIT:    5169976  MISS:    1845887
L2C LOAD      ACCESS:     568819  HIT:     238156  MISS:     330663
L2C RFO       ACCESS:     858725  HIT:      17643  MISS:     841082
L2C PREFETCH  ACCESS:    4465418  HIT:    3793308  MISS:     672110
L2C WRITEBACK ACCESS:    1122901  HIT:    1120869  MISS:       2032
L2C PREFETCH  REQUESTED:    3273614  ISSUED:    3272952  USEFUL:      22963  USELESS:     649544
L2C AVERAGE MISS LATENCY: 211.121 cycles
LLC TOTAL     ACCESS:    3832889  HIT:    2344692  MISS:    1488197
LLC LOAD      ACCESS:     330627  HIT:     173841  MISS:     156786
LLC RFO       ACCESS:     841082  HIT:     122931  MISS:     718151
LLC PREFETCH  ACCESS:    1599088  HIT:     987650  MISS:     611438
LLC WRITEBACK ACCESS:    1062092  HIT:    1060270  MISS:       1822
LLC PREFETCH  REQUESTED:          0  ISSUED:          0  USEFUL:      43843  USELESS:     566871
LLC AVERAGE MISS LATENCY: 263.363 cycles
Major fault: 0 Minor fault: 24703
CPU 0 L1D next line prefetcher final stats

DRAM Statistics
 CHANNEL 0
 RQ ROW_BUFFER_HIT:     357734  ROW_BUFFER_MISS:    1128516
 DBUS_CONGESTED:    1420189
 WQ ROW_BUFFER_HIT:     269786  ROW_BUFFER_MISS:     605189  FULL:          0

 AVG_CONGESTED_CYCLE: 6

CPU 0 Branch Prediction Accuracy: 99.2833% MPKI: 1.20568 Average ROB Occupancy at Mispredict: 181.606

Branch types
NOT_BRANCH: 41588350 83.1767%
BRANCH_DIRECT_JUMP: 464501 0.929002%
BRANCH_INDIRECT: 45704 0.091408%
BRANCH_CONDITIONAL: 6147408 12.2948%
BRANCH_DIRECT_CALL: 675450 1.3509%
BRANCH_INDIRECT_CALL: 201532 0.403064%
BRANCH_RETURN: 876985 1.75397%
BRANCH_OTHER: 0 0%

