Initialize SIGNATURE TABLE
ST_SET: 1
ST_WAY: 256
ST_TAG_BIT: 16
ST_TAG_MASK: ffff

Initialize PATTERN TABLE
PT_SET: 512
PT_WAY: 4
SIG_DELTA_BIT: 7
C_SIG_BIT: 4
C_DELTA_BIT: 4

Initialize PREFETCH FILTER
FILTER_SET: 1024

*** ChampSim Multicore Out-of-Order Simulator ***

Warmup Instructions: 50000000
Simulation Instructions: 50000000
Number of CPUs: 1
LLC sets: 2048
LLC ways: 16
Off-chip DRAM Size: 4096 MB Channels: 1 Width: 64-bit Data Rate: 3200 MT/s

CPU 0 runs /home/ykhodke/ChampSim/dpc3_traces/server_022.champsimtrace.xz
L1I D-JOLT instruction prefetcher has been constructed!
CPU 0 L1D next line prefetcher
Heartbeat CPU 0 instructions: 10000002 cycles: 3623709 heartbeat IPC: 2.7596 cumulative IPC: 2.7596 (Simulation time: 0 hr 3 min 28 sec) 
Heartbeat CPU 0 instructions: 20000001 cycles: 7253692 heartbeat IPC: 2.75483 cumulative IPC: 2.75722 (Simulation time: 0 hr 6 min 52 sec) 
Heartbeat CPU 0 instructions: 30000003 cycles: 10877501 heartbeat IPC: 2.75953 cumulative IPC: 2.75799 (Simulation time: 0 hr 9 min 55 sec) 
Heartbeat CPU 0 instructions: 40000003 cycles: 14508926 heartbeat IPC: 2.75374 cumulative IPC: 2.75692 (Simulation time: 0 hr 13 min 10 sec) 
Heartbeat CPU 0 instructions: 50000002 cycles: 18130162 heartbeat IPC: 2.76149 cumulative IPC: 2.75784 (Simulation time: 0 hr 16 min 8 sec) 

Warmup complete CPU 0 instructions: 50000002 cycles: 18130162 (Simulation time: 0 hr 16 min 8 sec) 

Heartbeat CPU 0 instructions: 60000000 cycles: 35002031 heartbeat IPC: 0.592702 cumulative IPC: 0.592702 (Simulation time: 0 hr 19 min 53 sec) 
Heartbeat CPU 0 instructions: 70000001 cycles: 51997809 heartbeat IPC: 0.588381 cumulative IPC: 0.590534 (Simulation time: 0 hr 23 min 50 sec) 
Heartbeat CPU 0 instructions: 80000001 cycles: 68752742 heartbeat IPC: 0.596839 cumulative IPC: 0.592621 (Simulation time: 0 hr 27 min 11 sec) 
Heartbeat CPU 0 instructions: 90000003 cycles: 85729163 heartbeat IPC: 0.589052 cumulative IPC: 0.591725 (Simulation time: 0 hr 29 min 6 sec) 
Heartbeat CPU 0 instructions: 100000003 cycles: 102501295 heartbeat IPC: 0.596227 cumulative IPC: 0.59262 (Simulation time: 0 hr 29 min 49 sec) 
Finished CPU 0 instructions: 50000001 cycles: 84371133 cumulative IPC: 0.59262 (Simulation time: 0 hr 29 min 49 sec) 

ChampSim completed all CPUs

Region of Interest Statistics

CPU 0 cumulative IPC: 0.59262 instructions: 50000001 cycles: 84371133
L1D TOTAL     ACCESS:   18697914  HIT:   16487185  MISS:    2210729
L1D LOAD      ACCESS:    7052775  HIT:    6348597  MISS:     704178
L1D RFO       ACCESS:    5886708  HIT:    4907261  MISS:     979447
L1D PREFETCH  ACCESS:    5758431  HIT:    5231327  MISS:     527104
L1D WRITEBACK ACCESS:          0  HIT:          0  MISS:          0
L1D PREFETCH  REQUESTED:    7094600  ISSUED:    6887563  USEFUL:     205915  USELESS:     321194
L1D AVERAGE MISS LATENCY: 181.06 cycles
L1I TOTAL     ACCESS:   18587308  HIT:   15417576  MISS:    3169732
L1I LOAD      ACCESS:   10149096  HIT:   10107690  MISS:      41406
L1I RFO       ACCESS:          0  HIT:          0  MISS:          0
L1I PREFETCH  ACCESS:    8438212  HIT:    5309886  MISS:    3128326
L1I WRITEBACK ACCESS:          0  HIT:          0  MISS:          0
L1I PREFETCH  REQUESTED:    9081045  ISSUED:    9045905  USEFUL:    2642722  USELESS:     485568
L1I AVERAGE MISS LATENCY: 17.323 cycles
L2C TOTAL     ACCESS:    7978517  HIT:    6103681  MISS:    1874836
L2C LOAD      ACCESS:     507798  HIT:     262465  MISS:     245333
L2C RFO       ACCESS:     978912  HIT:      20367  MISS:     958545
L2C PREFETCH  ACCESS:    5306708  HIT:    4638897  MISS:     667811
L2C WRITEBACK ACCESS:    1185099  HIT:    1181952  MISS:       3147
L2C PREFETCH  REQUESTED:    4699723  ISSUED:    4693015  USEFUL:      19521  USELESS:     648246
L2C AVERAGE MISS LATENCY: 219.184 cycles
LLC TOTAL     ACCESS:    4230768  HIT:    2825715  MISS:    1405053
LLC LOAD      ACCESS:     245253  HIT:     170480  MISS:      74773
LLC RFO       ACCESS:     958531  HIT:     141480  MISS:     817051
LLC PREFETCH  ACCESS:    1908411  HIT:    1397430  MISS:     510981
LLC WRITEBACK ACCESS:    1118573  HIT:    1116325  MISS:       2248
LLC PREFETCH  REQUESTED:          0  ISSUED:          0  USEFUL:      28318  USELESS:     482963
LLC AVERAGE MISS LATENCY: 293.793 cycles
Major fault: 0 Minor fault: 23509
CPU 0 L1D next line prefetcher final stats

DRAM Statistics
 CHANNEL 0
 RQ ROW_BUFFER_HIT:     402842  ROW_BUFFER_MISS:     999628
 DBUS_CONGESTED:    1453012
 WQ ROW_BUFFER_HIT:     264719  ROW_BUFFER_MISS:     638441  FULL:          0

 AVG_CONGESTED_CYCLE: 6

CPU 0 Branch Prediction Accuracy: 99.8317% MPKI: 0.27564 Average ROB Occupancy at Mispredict: 222.617

Branch types
NOT_BRANCH: 41811174 83.6223%
BRANCH_DIRECT_JUMP: 445742 0.891484%
BRANCH_INDIRECT: 48876 0.097752%
BRANCH_CONDITIONAL: 5859410 11.7188%
BRANCH_DIRECT_CALL: 758268 1.51654%
BRANCH_INDIRECT_CALL: 159103 0.318206%
BRANCH_RETURN: 917373 1.83475%
BRANCH_OTHER: 0 0%

