Initialize SIGNATURE TABLE
ST_SET: 1
ST_WAY: 256
ST_TAG_BIT: 16
ST_TAG_MASK: ffff

Initialize PATTERN TABLE
PT_SET: 512
PT_WAY: 4
SIG_DELTA_BIT: 7
C_SIG_BIT: 4
C_DELTA_BIT: 4

Initialize PREFETCH FILTER
FILTER_SET: 1024

*** ChampSim Multicore Out-of-Order Simulator ***

Warmup Instructions: 50000000
Simulation Instructions: 50000000
Number of CPUs: 1
LLC sets: 2048
LLC ways: 16
Off-chip DRAM Size: 4096 MB Channels: 1 Width: 64-bit Data Rate: 3200 MT/s

CPU 0 runs /home/ykhodke/ChampSim/dpc3_traces/server_034.champsimtrace.xz
L1I D-JOLT instruction prefetcher has been constructed!
CPU 0 L1D next line prefetcher
Heartbeat CPU 0 instructions: 10000000 cycles: 3332067 heartbeat IPC: 3.00114 cumulative IPC: 3.00114 (Simulation time: 0 hr 2 min 49 sec) 
Heartbeat CPU 0 instructions: 20000002 cycles: 6656704 heartbeat IPC: 3.00785 cumulative IPC: 3.00449 (Simulation time: 0 hr 5 min 36 sec) 
Heartbeat CPU 0 instructions: 30000003 cycles: 9989185 heartbeat IPC: 3.00077 cumulative IPC: 3.00325 (Simulation time: 0 hr 8 min 28 sec) 
Heartbeat CPU 0 instructions: 40000001 cycles: 13320160 heartbeat IPC: 3.00212 cumulative IPC: 3.00297 (Simulation time: 0 hr 11 min 26 sec) 
Heartbeat CPU 0 instructions: 50000000 cycles: 16650649 heartbeat IPC: 3.00256 cumulative IPC: 3.00289 (Simulation time: 0 hr 14 min 42 sec) 

Warmup complete CPU 0 instructions: 50000002 cycles: 16650650 (Simulation time: 0 hr 14 min 42 sec) 

Heartbeat CPU 0 instructions: 60000002 cycles: 22595090 heartbeat IPC: 1.68224 cumulative IPC: 1.68224 (Simulation time: 0 hr 18 min 10 sec) 
Heartbeat CPU 0 instructions: 70000003 cycles: 28931807 heartbeat IPC: 1.5781 cumulative IPC: 1.62851 (Simulation time: 0 hr 21 min 23 sec) 
Heartbeat CPU 0 instructions: 80000002 cycles: 34962071 heartbeat IPC: 1.6583 cumulative IPC: 1.63832 (Simulation time: 0 hr 24 min 32 sec) 
Heartbeat CPU 0 instructions: 90000002 cycles: 40991881 heartbeat IPC: 1.65843 cumulative IPC: 1.6433 (Simulation time: 0 hr 27 min 11 sec) 
Heartbeat CPU 0 instructions: 100000002 cycles: 46989339 heartbeat IPC: 1.66737 cumulative IPC: 1.64806 (Simulation time: 0 hr 28 min 55 sec) 
Finished CPU 0 instructions: 50000000 cycles: 30338689 cumulative IPC: 1.64806 (Simulation time: 0 hr 28 min 55 sec) 

ChampSim completed all CPUs

Region of Interest Statistics

CPU 0 cumulative IPC: 1.64806 instructions: 50000000 cycles: 30338689
L1D TOTAL     ACCESS:   18229370  HIT:   16805311  MISS:    1424059
L1D LOAD      ACCESS:    6123495  HIT:    5467255  MISS:     656240
L1D RFO       ACCESS:    6163346  HIT:    6020790  MISS:     142556
L1D PREFETCH  ACCESS:    5942529  HIT:    5317266  MISS:     625263
L1D WRITEBACK ACCESS:          0  HIT:          0  MISS:          0
L1D PREFETCH  REQUESTED:    6158208  ISSUED:    6067957  USEFUL:     140846  USELESS:     484386
L1D AVERAGE MISS LATENCY: 17.8222 cycles
L1I TOTAL     ACCESS:   19400775  HIT:   15395406  MISS:    4005369
L1I LOAD      ACCESS:    9669852  HIT:    9615586  MISS:      54266
L1I RFO       ACCESS:          0  HIT:          0  MISS:          0
L1I PREFETCH  ACCESS:    9730923  HIT:    5779820  MISS:    3951103
L1I WRITEBACK ACCESS:          0  HIT:          0  MISS:          0
L1I PREFETCH  REQUESTED:   10421509  ISSUED:   10145734  USEFUL:    3321085  USELESS:     629977
L1I AVERAGE MISS LATENCY: 15.0609 cycles
L2C TOTAL     ACCESS:    7496215  HIT:    7361176  MISS:     135039
L2C LOAD      ACCESS:     698707  HIT:     655821  MISS:      42886
L2C RFO       ACCESS:     140716  HIT:     130426  MISS:      10290
L2C PREFETCH  ACCESS:    6306020  HIT:    6225924  MISS:      80096
L2C WRITEBACK ACCESS:     350772  HIT:     349005  MISS:       1767
L2C PREFETCH  REQUESTED:    5844144  ISSUED:    5830592  USEFUL:       3127  USELESS:      76431
L2C AVERAGE MISS LATENCY: 39.5696 cycles
LLC TOTAL     ACCESS:    1817104  HIT:    1802094  MISS:      15010
LLC LOAD      ACCESS:      42784  HIT:      39983  MISS:       2801
LLC RFO       ACCESS:      10290  HIT:       9924  MISS:        366
LLC PREFETCH  ACCESS:    1720406  HIT:    1708626  MISS:      11780
LLC WRITEBACK ACCESS:      43624  HIT:      43561  MISS:         63
LLC PREFETCH  REQUESTED:          0  ISSUED:          0  USEFUL:       3097  USELESS:       5862
LLC AVERAGE MISS LATENCY: 162.006 cycles
Major fault: 0 Minor fault: 1174
CPU 0 L1D next line prefetcher final stats

DRAM Statistics
 CHANNEL 0
 RQ ROW_BUFFER_HIT:       3835  ROW_BUFFER_MISS:      11111
 DBUS_CONGESTED:       6307
 WQ ROW_BUFFER_HIT:       1068  ROW_BUFFER_MISS:       3380  FULL:          0

 AVG_CONGESTED_CYCLE: 5

CPU 0 Branch Prediction Accuracy: 99.926% MPKI: 0.14472 Average ROB Occupancy at Mispredict: 266.167

Branch types
NOT_BRANCH: 40221093 80.4422%
BRANCH_DIRECT_JUMP: 771319 1.54264%
BRANCH_INDIRECT: 108663 0.217326%
BRANCH_CONDITIONAL: 6375046 12.7501%
BRANCH_DIRECT_CALL: 1049638 2.09928%
BRANCH_INDIRECT_CALL: 212283 0.424566%
BRANCH_RETURN: 1261926 2.52385%
BRANCH_OTHER: 0 0%

