Initialize SIGNATURE TABLE
ST_SET: 1
ST_WAY: 256
ST_TAG_BIT: 16
ST_TAG_MASK: ffff

Initialize PATTERN TABLE
PT_SET: 512
PT_WAY: 4
SIG_DELTA_BIT: 7
C_SIG_BIT: 4
C_DELTA_BIT: 4

Initialize PREFETCH FILTER
FILTER_SET: 1024

*** ChampSim Multicore Out-of-Order Simulator ***

Warmup Instructions: 50000000
Simulation Instructions: 50000000
Number of CPUs: 1
LLC sets: 2048
LLC ways: 16
Off-chip DRAM Size: 4096 MB Channels: 1 Width: 64-bit Data Rate: 3200 MT/s

CPU 0 runs /home/ykhodke/ChampSim/dpc3_traces/server_030.champsimtrace.xz
L1I D-JOLT instruction prefetcher has been constructed!
CPU 0 L1D next line prefetcher
Heartbeat CPU 0 instructions: 10000003 cycles: 3508133 heartbeat IPC: 2.85052 cumulative IPC: 2.85052 (Simulation time: 0 hr 3 min 32 sec) 
Heartbeat CPU 0 instructions: 20000003 cycles: 7016845 heartbeat IPC: 2.85005 cumulative IPC: 2.85028 (Simulation time: 0 hr 6 min 57 sec) 
Heartbeat CPU 0 instructions: 30000000 cycles: 10524903 heartbeat IPC: 2.85058 cumulative IPC: 2.85038 (Simulation time: 0 hr 10 min 40 sec) 
Heartbeat CPU 0 instructions: 40000002 cycles: 14033460 heartbeat IPC: 2.85018 cumulative IPC: 2.85033 (Simulation time: 0 hr 14 min 12 sec) 
Heartbeat CPU 0 instructions: 50000002 cycles: 17544745 heartbeat IPC: 2.84796 cumulative IPC: 2.84986 (Simulation time: 0 hr 17 min 8 sec) 

Warmup complete CPU 0 instructions: 50000002 cycles: 17544745 (Simulation time: 0 hr 17 min 8 sec) 

Heartbeat CPU 0 instructions: 60000000 cycles: 24623325 heartbeat IPC: 1.41271 cumulative IPC: 1.41271 (Simulation time: 0 hr 20 min 13 sec) 
Heartbeat CPU 0 instructions: 70000000 cycles: 31705213 heartbeat IPC: 1.41205 cumulative IPC: 1.41238 (Simulation time: 0 hr 23 min 16 sec) 
Heartbeat CPU 0 instructions: 80000001 cycles: 38775115 heartbeat IPC: 1.41445 cumulative IPC: 1.41307 (Simulation time: 0 hr 26 min 26 sec) 
*** Reached end of trace for Core: 0 Repeating trace: /home/ykhodke/ChampSim/dpc3_traces/server_030.champsimtrace.xz
Heartbeat CPU 0 instructions: 90000002 cycles: 45844739 heartbeat IPC: 1.4145 cumulative IPC: 1.41343 (Simulation time: 0 hr 29 min 19 sec) 
Heartbeat CPU 0 instructions: 100000002 cycles: 52918404 heartbeat IPC: 1.41369 cumulative IPC: 1.41348 (Simulation time: 0 hr 31 min 8 sec) 
Finished CPU 0 instructions: 50000000 cycles: 35373659 cumulative IPC: 1.41348 (Simulation time: 0 hr 31 min 8 sec) 

ChampSim completed all CPUs

Region of Interest Statistics

CPU 0 cumulative IPC: 1.41348 instructions: 50000000 cycles: 35373659
L1D TOTAL     ACCESS:   19145043  HIT:   17069113  MISS:    2075930
L1D LOAD      ACCESS:    6762216  HIT:    5707810  MISS:    1054406
L1D RFO       ACCESS:    6168699  HIT:    5882135  MISS:     286564
L1D PREFETCH  ACCESS:    6214128  HIT:    5479168  MISS:     734960
L1D WRITEBACK ACCESS:          0  HIT:          0  MISS:          0
L1D PREFETCH  REQUESTED:    6815912  ISSUED:    6681661  USEFUL:     179476  USELESS:     555577
L1D AVERAGE MISS LATENCY: 19.3403 cycles
L1I TOTAL     ACCESS:   17136365  HIT:   13632538  MISS:    3503827
L1I LOAD      ACCESS:    9828189  HIT:    9779285  MISS:      48904
L1I RFO       ACCESS:          0  HIT:          0  MISS:          0
L1I PREFETCH  ACCESS:    7308176  HIT:    3853253  MISS:    3454923
L1I WRITEBACK ACCESS:          0  HIT:          0  MISS:          0
L1I PREFETCH  REQUESTED:    7786835  ISSUED:    7666748  USEFUL:    2952795  USELESS:     502156
L1I AVERAGE MISS LATENCY: 19.6638 cycles
L2C TOTAL     ACCESS:    7860391  HIT:    6953399  MISS:     906992
L2C LOAD      ACCESS:     931695  HIT:     783042  MISS:     148653
L2C RFO       ACCESS:     283597  HIT:     219109  MISS:      64488
L2C PREFETCH  ACCESS:    6029567  HIT:    5340470  MISS:     689097
L2C WRITEBACK ACCESS:     615532  HIT:     610778  MISS:       4754
L2C PREFETCH  REQUESTED:    5626563  ISSUED:    5617408  USEFUL:      10096  USELESS:     678851
L2C AVERAGE MISS LATENCY: 33.859 cycles
LLC TOTAL     ACCESS:    2474459  HIT:    2451764  MISS:      22695
LLC LOAD      ACCESS:     148421  HIT:     145423  MISS:       2998
LLC RFO       ACCESS:      64436  HIT:      62606  MISS:       1830
LLC PREFETCH  ACCESS:    2138690  HIT:    2120958  MISS:      17732
LLC WRITEBACK ACCESS:     122912  HIT:     122777  MISS:        135
LLC PREFETCH  REQUESTED:          0  ISSUED:          0  USEFUL:        846  USELESS:      16149
LLC AVERAGE MISS LATENCY: 148.005 cycles
Major fault: 0 Minor fault: 2043
CPU 0 L1D next line prefetcher final stats

DRAM Statistics
 CHANNEL 0
 RQ ROW_BUFFER_HIT:       7031  ROW_BUFFER_MISS:      15529
 DBUS_CONGESTED:       6529
 WQ ROW_BUFFER_HIT:        178  ROW_BUFFER_MISS:       2420  FULL:          0

 AVG_CONGESTED_CYCLE: 5

CPU 0 Branch Prediction Accuracy: 99.8445% MPKI: 0.29148 Average ROB Occupancy at Mispredict: 166.977

Branch types
NOT_BRANCH: 40628081 81.2562%
BRANCH_DIRECT_JUMP: 490941 0.981882%
BRANCH_INDIRECT: 175854 0.351708%
BRANCH_CONDITIONAL: 6321415 12.6428%
BRANCH_DIRECT_CALL: 1002072 2.00414%
BRANCH_INDIRECT_CALL: 189783 0.379566%
BRANCH_RETURN: 1191851 2.3837%
BRANCH_OTHER: 0 0%

