Initialize SIGNATURE TABLE
ST_SET: 1
ST_WAY: 256
ST_TAG_BIT: 16
ST_TAG_MASK: ffff

Initialize PATTERN TABLE
PT_SET: 512
PT_WAY: 4
SIG_DELTA_BIT: 7
C_SIG_BIT: 4
C_DELTA_BIT: 4

Initialize PREFETCH FILTER
FILTER_SET: 1024

*** ChampSim Multicore Out-of-Order Simulator ***

Warmup Instructions: 50000000
Simulation Instructions: 50000000
Number of CPUs: 1
LLC sets: 2048
LLC ways: 16
Off-chip DRAM Size: 4096 MB Channels: 1 Width: 64-bit Data Rate: 3200 MT/s

CPU 0 runs /home/ykhodke/ChampSim/dpc3_traces/server_012.champsimtrace.xz
LHT KB: 63.12
SCC KB: 1.56
Total KB: 64.69
CPU 0 L1D next line prefetcher
Heartbeat CPU 0 instructions: 10000002 cycles: 3200555 heartbeat IPC: 3.12446 cumulative IPC: 3.12446 (Simulation time: 0 hr 2 min 45 sec) 
Heartbeat CPU 0 instructions: 20000002 cycles: 6404182 heartbeat IPC: 3.12146 cumulative IPC: 3.12296 (Simulation time: 0 hr 5 min 32 sec) 
Heartbeat CPU 0 instructions: 30000001 cycles: 9608681 heartbeat IPC: 3.12061 cumulative IPC: 3.12218 (Simulation time: 0 hr 8 min 12 sec) 
Heartbeat CPU 0 instructions: 40000000 cycles: 12818523 heartbeat IPC: 3.11542 cumulative IPC: 3.12048 (Simulation time: 0 hr 10 min 54 sec) 
Heartbeat CPU 0 instructions: 50000003 cycles: 16021847 heartbeat IPC: 3.12176 cumulative IPC: 3.12074 (Simulation time: 0 hr 13 min 44 sec) 

Warmup complete CPU 0 instructions: 50000003 cycles: 16021847 (Simulation time: 0 hr 13 min 44 sec) 

Heartbeat CPU 0 instructions: 60000002 cycles: 23849311 heartbeat IPC: 1.27755 cumulative IPC: 1.27755 (Simulation time: 0 hr 16 min 32 sec) 
Heartbeat CPU 0 instructions: 70000000 cycles: 31722396 heartbeat IPC: 1.27015 cumulative IPC: 1.27384 (Simulation time: 0 hr 19 min 18 sec) 
Heartbeat CPU 0 instructions: 80000003 cycles: 39587596 heartbeat IPC: 1.27142 cumulative IPC: 1.27303 (Simulation time: 0 hr 22 min 4 sec) 
Heartbeat CPU 0 instructions: 90000001 cycles: 47703882 heartbeat IPC: 1.23209 cumulative IPC: 1.26255 (Simulation time: 0 hr 24 min 41 sec) 
Heartbeat CPU 0 instructions: 100000002 cycles: 55681507 heartbeat IPC: 1.25351 cumulative IPC: 1.26073 (Simulation time: 0 hr 27 min 9 sec) 
Finished CPU 0 instructions: 50000001 cycles: 39659661 cumulative IPC: 1.26073 (Simulation time: 0 hr 27 min 9 sec) 

ChampSim completed all CPUs

Region of Interest Statistics

CPU 0 cumulative IPC: 1.26073 instructions: 50000001 cycles: 39659661
L1D TOTAL     ACCESS:   17565921  HIT:   16522854  MISS:    1043067
L1D LOAD      ACCESS:    6419813  HIT:    5933996  MISS:     485817
L1D RFO       ACCESS:    4969145  HIT:    4887150  MISS:      81995
L1D PREFETCH  ACCESS:    6176963  HIT:    5701708  MISS:     475255
L1D WRITEBACK ACCESS:          0  HIT:          0  MISS:          0
L1D PREFETCH  REQUESTED:    6455891  ISSUED:    6354714  USEFUL:     134502  USELESS:     340773
L1D AVERAGE MISS LATENCY: 42.9808 cycles
L1I TOTAL     ACCESS:   17958396  HIT:   15532690  MISS:    2425706
L1I LOAD      ACCESS:    8647344  HIT:    8186755  MISS:     460589
L1I RFO       ACCESS:          0  HIT:          0  MISS:          0
L1I PREFETCH  ACCESS:    9311052  HIT:    7345935  MISS:    1965117
L1I WRITEBACK ACCESS:          0  HIT:          0  MISS:          0
L1I PREFETCH  REQUESTED:   16286205  ISSUED:   16286205  USEFUL:     991966  USELESS:     973122
L1I AVERAGE MISS LATENCY: 26.1103 cycles
L2C TOTAL     ACCESS:    4539545  HIT:    3025529  MISS:    1514016
L2C LOAD      ACCESS:     547160  HIT:     246382  MISS:     300778
L2C RFO       ACCESS:      80646  HIT:      28528  MISS:      52118
L2C PREFETCH  ACCESS:    3636252  HIT:    2477292  MISS:    1158960
L2C WRITEBACK ACCESS:     275487  HIT:     273327  MISS:       2160
L2C PREFETCH  REQUESTED:    3135141  ISSUED:    3130963  USEFUL:      34401  USELESS:    1123922
L2C AVERAGE MISS LATENCY: 48.7489 cycles
LLC TOTAL     ACCESS:    2508284  HIT:    2314155  MISS:     194129
LLC LOAD      ACCESS:     300668  HIT:     275653  MISS:      25015
LLC RFO       ACCESS:      52114  HIT:      40745  MISS:      11369
LLC PREFETCH  ACCESS:    1978570  HIT:    1821193  MISS:     157377
LLC WRITEBACK ACCESS:     176932  HIT:     176564  MISS:        368
LLC PREFETCH  REQUESTED:          0  ISSUED:          0  USEFUL:      11469  USELESS:     145465
LLC AVERAGE MISS LATENCY: 170.817 cycles
Major fault: 0 Minor fault: 5624
CPU 0 L1D next line prefetcher final stats

DRAM Statistics
 CHANNEL 0
 RQ ROW_BUFFER_HIT:      33505  ROW_BUFFER_MISS:     160230
 DBUS_CONGESTED:      81334
 WQ ROW_BUFFER_HIT:      11249  ROW_BUFFER_MISS:      50753  FULL:          0

 AVG_CONGESTED_CYCLE: 5

CPU 0 Branch Prediction Accuracy: 99.4607% MPKI: 1.00288 Average ROB Occupancy at Mispredict: 108.857

Branch types
NOT_BRANCH: 40700991 81.402%
BRANCH_DIRECT_JUMP: 469809 0.939618%
BRANCH_INDIRECT: 153732 0.307464%
BRANCH_CONDITIONAL: 6944066 13.8881%
BRANCH_DIRECT_CALL: 679877 1.35975%
BRANCH_INDIRECT_CALL: 168745 0.33749%
BRANCH_RETURN: 882492 1.76498%
BRANCH_OTHER: 0 0%

