Initialize SIGNATURE TABLE
ST_SET: 1
ST_WAY: 256
ST_TAG_BIT: 16
ST_TAG_MASK: ffff

Initialize PATTERN TABLE
PT_SET: 512
PT_WAY: 4
SIG_DELTA_BIT: 7
C_SIG_BIT: 4
C_DELTA_BIT: 4

Initialize PREFETCH FILTER
FILTER_SET: 1024

*** ChampSim Multicore Out-of-Order Simulator ***

Warmup Instructions: 50000000
Simulation Instructions: 50000000
Number of CPUs: 1
LLC sets: 2048
LLC ways: 16
Off-chip DRAM Size: 4096 MB Channels: 1 Width: 64-bit Data Rate: 3200 MT/s

CPU 0 runs /home/ykhodke/ChampSim/dpc3_traces/server_027.champsimtrace.xz
CPU 0 L1D next line prefetcher
Heartbeat CPU 0 instructions: 10000001 cycles: 3534690 heartbeat IPC: 2.8291 cumulative IPC: 2.8291 (Simulation time: 0 hr 28 min 16 sec) 
Heartbeat CPU 0 instructions: 20000001 cycles: 7074168 heartbeat IPC: 2.82528 cumulative IPC: 2.82719 (Simulation time: 0 hr 28 min 31 sec) 
Heartbeat CPU 0 instructions: 30000002 cycles: 10607991 heartbeat IPC: 2.8298 cumulative IPC: 2.82806 (Simulation time: 0 hr 28 min 45 sec) 
Heartbeat CPU 0 instructions: 40000000 cycles: 14148423 heartbeat IPC: 2.82451 cumulative IPC: 2.82717 (Simulation time: 0 hr 29 min 0 sec) 
Heartbeat CPU 0 instructions: 50000001 cycles: 17682633 heartbeat IPC: 2.82949 cumulative IPC: 2.82763 (Simulation time: 0 hr 29 min 14 sec) 

Warmup complete CPU 0 instructions: 50000001 cycles: 17682633 (Simulation time: 0 hr 29 min 14 sec) 

Heartbeat CPU 0 instructions: 60000002 cycles: 28683746 heartbeat IPC: 0.908999 cumulative IPC: 0.908999 (Simulation time: 0 hr 29 min 26 sec) 
Heartbeat CPU 0 instructions: 70000003 cycles: 39589023 heartbeat IPC: 0.916987 cumulative IPC: 0.912976 (Simulation time: 0 hr 29 min 38 sec) 
Heartbeat CPU 0 instructions: 80000002 cycles: 50510041 heartbeat IPC: 0.915665 cumulative IPC: 0.913871 (Simulation time: 0 hr 29 min 50 sec) 
Heartbeat CPU 0 instructions: 90000000 cycles: 61496283 heartbeat IPC: 0.910229 cumulative IPC: 0.912957 (Simulation time: 0 hr 30 min 2 sec) 
Heartbeat CPU 0 instructions: 100000002 cycles: 72338788 heartbeat IPC: 0.922296 cumulative IPC: 0.91481 (Simulation time: 0 hr 30 min 14 sec) 
Finished CPU 0 instructions: 50000001 cycles: 54656155 cumulative IPC: 0.91481 (Simulation time: 0 hr 30 min 14 sec) 

ChampSim completed all CPUs

Region of Interest Statistics

CPU 0 cumulative IPC: 0.91481 instructions: 50000001 cycles: 54656155
L1D TOTAL     ACCESS:   22572086  HIT:   20967919  MISS:    1604167
L1D LOAD      ACCESS:    8227710  HIT:    7550970  MISS:     676740
L1D RFO       ACCESS:    6381947  HIT:    6095832  MISS:     286115
L1D PREFETCH  ACCESS:    7962429  HIT:    7321117  MISS:     641312
L1D WRITEBACK ACCESS:          0  HIT:          0  MISS:          0
L1D PREFETCH  REQUESTED:    8273603  ISSUED:    8161580  USEFUL:     164620  USELESS:     476706
L1D AVERAGE MISS LATENCY: 22.7471 cycles
L1I TOTAL     ACCESS:    9273419  HIT:    6519026  MISS:    2754393
L1I LOAD      ACCESS:    9273419  HIT:    6519026  MISS:    2754393
L1I RFO       ACCESS:          0  HIT:          0  MISS:          0
L1I PREFETCH  ACCESS:          0  HIT:          0  MISS:          0
L1I WRITEBACK ACCESS:          0  HIT:          0  MISS:          0
L1I PREFETCH  REQUESTED:          0  ISSUED:          0  USEFUL:          0  USELESS:          0
L1I AVERAGE MISS LATENCY: 18.8676 cycles
L2C TOTAL     ACCESS:    7117891  HIT:    6361874  MISS:     756017
L2C LOAD      ACCESS:    3386609  HIT:    2844266  MISS:     542343
L2C RFO       ACCESS:     283234  HIT:     201132  MISS:      82102
L2C PREFETCH  ACCESS:    2888635  HIT:    2759997  MISS:     128638
L2C WRITEBACK ACCESS:     559413  HIT:     556479  MISS:       2934
L2C PREFETCH  REQUESTED:    4332494  ISSUED:    4332045  USEFUL:      10486  USELESS:     118181
L2C AVERAGE MISS LATENCY: 35.8124 cycles
LLC TOTAL     ACCESS:    2315518  HIT:    2282930  MISS:      32588
LLC LOAD      ACCESS:     542017  HIT:     537618  MISS:       4399
LLC RFO       ACCESS:      82017  HIT:      68074  MISS:      13943
LLC PREFETCH  ACCESS:    1555472  HIT:    1541419  MISS:      14053
LLC WRITEBACK ACCESS:     136012  HIT:     135819  MISS:        193
LLC PREFETCH  REQUESTED:          0  ISSUED:          0  USEFUL:       1521  USELESS:      13335
LLC AVERAGE MISS LATENCY: 180.434 cycles
Major fault: 0 Minor fault: 2477
CPU 0 L1D next line prefetcher final stats

DRAM Statistics
 CHANNEL 0
 RQ ROW_BUFFER_HIT:      11273  ROW_BUFFER_MISS:      21120
 DBUS_CONGESTED:      22445
 WQ ROW_BUFFER_HIT:       1464  ROW_BUFFER_MISS:      13916  FULL:          0

 AVG_CONGESTED_CYCLE: 6

CPU 0 Branch Prediction Accuracy: 99.8082% MPKI: 0.35064 Average ROB Occupancy at Mispredict: 83.6545

Branch types
NOT_BRANCH: 40857228 81.7145%
BRANCH_DIRECT_JUMP: 526631 1.05326%
BRANCH_INDIRECT: 205902 0.411804%
BRANCH_CONDITIONAL: 6184014 12.368%
BRANCH_DIRECT_CALL: 938462 1.87692%
BRANCH_INDIRECT_CALL: 174486 0.348972%
BRANCH_RETURN: 1112951 2.2259%
BRANCH_OTHER: 0 0%

