Initialize SIGNATURE TABLE
ST_SET: 1
ST_WAY: 256
ST_TAG_BIT: 16
ST_TAG_MASK: ffff

Initialize PATTERN TABLE
PT_SET: 512
PT_WAY: 4
SIG_DELTA_BIT: 7
C_SIG_BIT: 4
C_DELTA_BIT: 4

Initialize PREFETCH FILTER
FILTER_SET: 1024

*** ChampSim Multicore Out-of-Order Simulator ***

Warmup Instructions: 50000000
Simulation Instructions: 50000000
Number of CPUs: 1
LLC sets: 2048
LLC ways: 16
Off-chip DRAM Size: 4096 MB Channels: 1 Width: 64-bit Data Rate: 3200 MT/s

CPU 0 runs /home/ykhodke/ChampSim/dpc3_traces/server_019.champsimtrace.xz
LHT KB: 63.12
SCC KB: 1.56
Total KB: 64.69
CPU 0 L1D next line prefetcher
Heartbeat CPU 0 instructions: 10000002 cycles: 3623596 heartbeat IPC: 2.75969 cumulative IPC: 2.75969 (Simulation time: 0 hr 2 min 50 sec) 
Heartbeat CPU 0 instructions: 20000003 cycles: 7248010 heartbeat IPC: 2.75907 cumulative IPC: 2.75938 (Simulation time: 0 hr 5 min 39 sec) 
Heartbeat CPU 0 instructions: 30000002 cycles: 10871347 heartbeat IPC: 2.75989 cumulative IPC: 2.75955 (Simulation time: 0 hr 8 min 52 sec) 
Heartbeat CPU 0 instructions: 40000002 cycles: 14506470 heartbeat IPC: 2.75094 cumulative IPC: 2.75739 (Simulation time: 0 hr 12 min 22 sec) 
Heartbeat CPU 0 instructions: 50000001 cycles: 18130060 heartbeat IPC: 2.75969 cumulative IPC: 2.75785 (Simulation time: 0 hr 15 min 31 sec) 

Warmup complete CPU 0 instructions: 50000001 cycles: 18130060 (Simulation time: 0 hr 15 min 31 sec) 

Heartbeat CPU 0 instructions: 60000000 cycles: 38443570 heartbeat IPC: 0.492283 cumulative IPC: 0.492283 (Simulation time: 0 hr 20 min 17 sec) 
Heartbeat CPU 0 instructions: 70000002 cycles: 62363624 heartbeat IPC: 0.418059 cumulative IPC: 0.452145 (Simulation time: 0 hr 24 min 35 sec) 
Heartbeat CPU 0 instructions: 80000001 cycles: 83336313 heartbeat IPC: 0.476811 cumulative IPC: 0.460079 (Simulation time: 0 hr 28 min 0 sec) 
Heartbeat CPU 0 instructions: 90000002 cycles: 101499128 heartbeat IPC: 0.550575 cumulative IPC: 0.479794 (Simulation time: 0 hr 29 min 51 sec) 
Heartbeat CPU 0 instructions: 100000002 cycles: 119612826 heartbeat IPC: 0.552068 cumulative IPC: 0.492694 (Simulation time: 0 hr 30 min 28 sec) 
Finished CPU 0 instructions: 50000001 cycles: 101482766 cumulative IPC: 0.492694 (Simulation time: 0 hr 30 min 28 sec) 

ChampSim completed all CPUs

Region of Interest Statistics

CPU 0 cumulative IPC: 0.492694 instructions: 50000001 cycles: 101482766
L1D TOTAL     ACCESS:   18332639  HIT:   16108997  MISS:    2223642
L1D LOAD      ACCESS:    6979054  HIT:    6214232  MISS:     764822
L1D RFO       ACCESS:    5550067  HIT:    4647896  MISS:     902171
L1D PREFETCH  ACCESS:    5803518  HIT:    5246869  MISS:     556649
L1D WRITEBACK ACCESS:          0  HIT:          0  MISS:          0
L1D PREFETCH  REQUESTED:    7017800  ISSUED:    6831074  USEFUL:     187450  USELESS:     369107
L1D AVERAGE MISS LATENCY: 186.504 cycles
L1I TOTAL     ACCESS:   22781846  HIT:   20020403  MISS:    2761443
L1I LOAD      ACCESS:    9821595  HIT:    9633820  MISS:     187775
L1I RFO       ACCESS:          0  HIT:          0  MISS:          0
L1I PREFETCH  ACCESS:   12960251  HIT:   10386583  MISS:    2573668
L1I WRITEBACK ACCESS:          0  HIT:          0  MISS:          0
L1I PREFETCH  REQUESTED:   14429922  ISSUED:   14429905  USEFUL:    1942247  USELESS:     631355
L1I AVERAGE MISS LATENCY: 17.0797 cycles
L2C TOTAL     ACCESS:    7189866  HIT:    5295901  MISS:    1893965
L2C LOAD      ACCESS:     583727  HIT:     249514  MISS:     334213
L2C RFO       ACCESS:     901513  HIT:      18118  MISS:     883395
L2C PREFETCH  ACCESS:    4529978  HIT:    3856153  MISS:     673825
L2C WRITEBACK ACCESS:    1174648  HIT:    1172116  MISS:       2532
L2C PREFETCH  REQUESTED:    3329812  ISSUED:    3329165  USEFUL:      23270  USELESS:     649136
L2C AVERAGE MISS LATENCY: 224.296 cycles
LLC TOTAL     ACCESS:    3958945  HIT:    2391766  MISS:    1567179
LLC LOAD      ACCESS:     334204  HIT:     167473  MISS:     166731
LLC RFO       ACCESS:     883394  HIT:     116288  MISS:     767106
LLC PREFETCH  ACCESS:    1630454  HIT:     999380  MISS:     631074
LLC WRITEBACK ACCESS:    1110893  HIT:    1108625  MISS:       2268
LLC PREFETCH  REQUESTED:          0  ISSUED:          0  USEFUL:      47363  USELESS:     582680
LLC AVERAGE MISS LATENCY: 273.779 cycles
Major fault: 0 Minor fault: 25702
CPU 0 L1D next line prefetcher final stats

DRAM Statistics
 CHANNEL 0
 RQ ROW_BUFFER_HIT:     377687  ROW_BUFFER_MISS:    1187100
 DBUS_CONGESTED:    1535847
 WQ ROW_BUFFER_HIT:     282819  ROW_BUFFER_MISS:     651567  FULL:          0

 AVG_CONGESTED_CYCLE: 6

CPU 0 Branch Prediction Accuracy: 99.2186% MPKI: 1.32192 Average ROB Occupancy at Mispredict: 178.965

Branch types
NOT_BRANCH: 41540853 83.0817%
BRANCH_DIRECT_JUMP: 462384 0.924768%
BRANCH_INDIRECT: 45460 0.09092%
BRANCH_CONDITIONAL: 6209285 12.4186%
BRANCH_DIRECT_CALL: 666241 1.33248%
BRANCH_INDIRECT_CALL: 204728 0.409456%
BRANCH_RETURN: 870978 1.74196%
BRANCH_OTHER: 0 0%

