Initialize SIGNATURE TABLE
ST_SET: 1
ST_WAY: 256
ST_TAG_BIT: 16
ST_TAG_MASK: ffff

Initialize PATTERN TABLE
PT_SET: 512
PT_WAY: 4
SIG_DELTA_BIT: 7
C_SIG_BIT: 4
C_DELTA_BIT: 4

Initialize PREFETCH FILTER
FILTER_SET: 1024

*** ChampSim Multicore Out-of-Order Simulator ***

Warmup Instructions: 50000000
Simulation Instructions: 50000000
Number of CPUs: 1
LLC sets: 2048
LLC ways: 16
Off-chip DRAM Size: 4096 MB Channels: 1 Width: 64-bit Data Rate: 3200 MT/s

CPU 0 runs /home/ykhodke/ChampSim/dpc3_traces/server_031.champsimtrace.xz
L1I D-JOLT instruction prefetcher has been constructed!
CPU 0 L1D next line prefetcher
Heartbeat CPU 0 instructions: 10000003 cycles: 3521314 heartbeat IPC: 2.83985 cumulative IPC: 2.83985 (Simulation time: 0 hr 3 min 34 sec) 
Heartbeat CPU 0 instructions: 20000002 cycles: 7041325 heartbeat IPC: 2.8409 cumulative IPC: 2.84037 (Simulation time: 0 hr 7 min 9 sec) 
Heartbeat CPU 0 instructions: 30000002 cycles: 10562237 heartbeat IPC: 2.84017 cumulative IPC: 2.84031 (Simulation time: 0 hr 10 min 37 sec) 
Heartbeat CPU 0 instructions: 40000003 cycles: 14077521 heartbeat IPC: 2.84472 cumulative IPC: 2.84141 (Simulation time: 0 hr 14 min 9 sec) 
Heartbeat CPU 0 instructions: 50000001 cycles: 17594906 heartbeat IPC: 2.84302 cumulative IPC: 2.84173 (Simulation time: 0 hr 17 min 11 sec) 

Warmup complete CPU 0 instructions: 50000001 cycles: 17594906 (Simulation time: 0 hr 17 min 11 sec) 

Heartbeat CPU 0 instructions: 60000001 cycles: 25063501 heartbeat IPC: 1.33894 cumulative IPC: 1.33894 (Simulation time: 0 hr 20 min 12 sec) 
Heartbeat CPU 0 instructions: 70000002 cycles: 32584616 heartbeat IPC: 1.32959 cumulative IPC: 1.33425 (Simulation time: 0 hr 23 min 14 sec) 
*** Reached end of trace for Core: 0 Repeating trace: /home/ykhodke/ChampSim/dpc3_traces/server_031.champsimtrace.xz
Heartbeat CPU 0 instructions: 80000000 cycles: 39975414 heartbeat IPC: 1.35303 cumulative IPC: 1.34045 (Simulation time: 0 hr 26 min 0 sec) 
Heartbeat CPU 0 instructions: 90000003 cycles: 47409747 heartbeat IPC: 1.34511 cumulative IPC: 1.34161 (Simulation time: 0 hr 28 min 30 sec) 
Heartbeat CPU 0 instructions: 100000000 cycles: 54810847 heartbeat IPC: 1.35115 cumulative IPC: 1.34351 (Simulation time: 0 hr 29 min 48 sec) 
Finished CPU 0 instructions: 50000000 cycles: 37215943 cumulative IPC: 1.34351 (Simulation time: 0 hr 29 min 48 sec) 

ChampSim completed all CPUs

Region of Interest Statistics

CPU 0 cumulative IPC: 1.34351 instructions: 50000000 cycles: 37215943
L1D TOTAL     ACCESS:   19500963  HIT:   17596617  MISS:    1904346
L1D LOAD      ACCESS:    6757752  HIT:    5884748  MISS:     873004
L1D RFO       ACCESS:    6326756  HIT:    6035539  MISS:     291217
L1D PREFETCH  ACCESS:    6416455  HIT:    5676330  MISS:     740125
L1D WRITEBACK ACCESS:          0  HIT:          0  MISS:          0
L1D PREFETCH  REQUESTED:    6818981  ISSUED:    6704612  USEFUL:     174396  USELESS:     565734
L1D AVERAGE MISS LATENCY: 22.8104 cycles
L1I TOTAL     ACCESS:   17847074  HIT:   14293376  MISS:    3553698
L1I LOAD      ACCESS:    9723561  HIT:    9683160  MISS:      40401
L1I RFO       ACCESS:          0  HIT:          0  MISS:          0
L1I PREFETCH  ACCESS:    8123513  HIT:    4610216  MISS:    3513297
L1I WRITEBACK ACCESS:          0  HIT:          0  MISS:          0
L1I PREFETCH  REQUESTED:    8721400  ISSUED:    8591262  USEFUL:    3016582  USELESS:     496721
L1I AVERAGE MISS LATENCY: 17.9904 cycles
L2C TOTAL     ACCESS:    7815018  HIT:    7167370  MISS:     647648
L2C LOAD      ACCESS:     861886  HIT:     729030  MISS:     132856
L2C RFO       ACCESS:     289116  HIT:     243570  MISS:      45546
L2C PREFETCH  ACCESS:    6047082  HIT:    5579271  MISS:     467811
L2C WRITEBACK ACCESS:     616934  HIT:     615499  MISS:       1435
L2C PREFETCH  REQUESTED:    5765516  ISSUED:    5750513  USEFUL:       4575  USELESS:     462598
L2C AVERAGE MISS LATENCY: 44.0881 cycles
LLC TOTAL     ACCESS:    2313147  HIT:    2232434  MISS:      80713
LLC LOAD      ACCESS:     132830  HIT:     114114  MISS:      18716
LLC RFO       ACCESS:      45541  HIT:      41358  MISS:       4183
LLC PREFETCH  ACCESS:    2046946  HIT:    1989683  MISS:      57263
LLC WRITEBACK ACCESS:      87830  HIT:      87279  MISS:        551
LLC PREFETCH  REQUESTED:          0  ISSUED:          0  USEFUL:       2538  USELESS:      54300
LLC AVERAGE MISS LATENCY: 159.691 cycles
Major fault: 0 Minor fault: 6047
CPU 0 L1D next line prefetcher final stats

DRAM Statistics
 CHANNEL 0
 RQ ROW_BUFFER_HIT:      21808  ROW_BUFFER_MISS:      58346
 DBUS_CONGESTED:      32560
 WQ ROW_BUFFER_HIT:        771  ROW_BUFFER_MISS:       5236  FULL:          0

 AVG_CONGESTED_CYCLE: 5

CPU 0 Branch Prediction Accuracy: 99.6894% MPKI: 0.58048 Average ROB Occupancy at Mispredict: 141.322

Branch types
NOT_BRANCH: 40655730 81.3115%
BRANCH_DIRECT_JUMP: 546483 1.09297%
BRANCH_INDIRECT: 172433 0.344866%
BRANCH_CONDITIONAL: 6207601 12.4152%
BRANCH_DIRECT_CALL: 1018499 2.037%
BRANCH_INDIRECT_CALL: 190373 0.380746%
BRANCH_RETURN: 1208856 2.41771%
BRANCH_OTHER: 0 0%

