Initialize SIGNATURE TABLE
ST_SET: 1
ST_WAY: 256
ST_TAG_BIT: 16
ST_TAG_MASK: ffff

Initialize PATTERN TABLE
PT_SET: 512
PT_WAY: 4
SIG_DELTA_BIT: 7
C_SIG_BIT: 4
C_DELTA_BIT: 4

Initialize PREFETCH FILTER
FILTER_SET: 1024

*** ChampSim Multicore Out-of-Order Simulator ***

Warmup Instructions: 50000000
Simulation Instructions: 50000000
Number of CPUs: 1
LLC sets: 2048
LLC ways: 16
Off-chip DRAM Size: 4096 MB Channels: 1 Width: 64-bit Data Rate: 3200 MT/s

CPU 0 runs /home/ykhodke/ChampSim/dpc3_traces/server_001.champsimtrace.xz
L1I D-JOLT instruction prefetcher has been constructed!
CPU 0 L1D next line prefetcher
Heartbeat CPU 0 instructions: 10000002 cycles: 3154821 heartbeat IPC: 3.16975 cumulative IPC: 3.16975 (Simulation time: 0 hr 3 min 2 sec) 
Heartbeat CPU 0 instructions: 20000000 cycles: 6369077 heartbeat IPC: 3.11114 cumulative IPC: 3.14017 (Simulation time: 0 hr 6 min 12 sec) 
Heartbeat CPU 0 instructions: 30000003 cycles: 9555053 heartbeat IPC: 3.13876 cumulative IPC: 3.1397 (Simulation time: 0 hr 9 min 34 sec) 
Heartbeat CPU 0 instructions: 40000002 cycles: 12762601 heartbeat IPC: 3.11765 cumulative IPC: 3.13416 (Simulation time: 0 hr 12 min 55 sec) 
Heartbeat CPU 0 instructions: 50000003 cycles: 15981385 heartbeat IPC: 3.10676 cumulative IPC: 3.12864 (Simulation time: 0 hr 16 min 15 sec) 

Warmup complete CPU 0 instructions: 50000003 cycles: 15981385 (Simulation time: 0 hr 16 min 15 sec) 

Heartbeat CPU 0 instructions: 60000000 cycles: 23073926 heartbeat IPC: 1.40993 cumulative IPC: 1.40993 (Simulation time: 0 hr 19 min 24 sec) 
Heartbeat CPU 0 instructions: 70000001 cycles: 29943678 heartbeat IPC: 1.45566 cumulative IPC: 1.43243 (Simulation time: 0 hr 22 min 38 sec) 
Heartbeat CPU 0 instructions: 80000002 cycles: 36821412 heartbeat IPC: 1.45397 cumulative IPC: 1.43954 (Simulation time: 0 hr 25 min 23 sec) 
Heartbeat CPU 0 instructions: 90000002 cycles: 43931606 heartbeat IPC: 1.40643 cumulative IPC: 1.43112 (Simulation time: 0 hr 27 min 42 sec) 
Heartbeat CPU 0 instructions: 100000003 cycles: 50662858 heartbeat IPC: 1.48561 cumulative IPC: 1.44169 (Simulation time: 0 hr 29 min 20 sec) 
Finished CPU 0 instructions: 50000000 cycles: 34681473 cumulative IPC: 1.44169 (Simulation time: 0 hr 29 min 20 sec) 

ChampSim completed all CPUs

Region of Interest Statistics

CPU 0 cumulative IPC: 1.44169 instructions: 50000000 cycles: 34681473
L1D TOTAL     ACCESS:   17598079  HIT:   17087011  MISS:     511068
L1D LOAD      ACCESS:    6436051  HIT:    6230753  MISS:     205298
L1D RFO       ACCESS:    5051607  HIT:    4968913  MISS:      82694
L1D PREFETCH  ACCESS:    6110421  HIT:    5887345  MISS:     223076
L1D WRITEBACK ACCESS:          0  HIT:          0  MISS:          0
L1D PREFETCH  REQUESTED:    6465398  ISSUED:    6288384  USEFUL:     131407  USELESS:      91797
L1D AVERAGE MISS LATENCY: 96.7888 cycles
L1I TOTAL     ACCESS:   17358671  HIT:   16232440  MISS:    1126231
L1I LOAD      ACCESS:    8260007  HIT:    8231110  MISS:      28897
L1I RFO       ACCESS:          0  HIT:          0  MISS:          0
L1I PREFETCH  ACCESS:    9098664  HIT:    8001330  MISS:    1097334
L1I WRITEBACK ACCESS:          0  HIT:          0  MISS:          0
L1I PREFETCH  REQUESTED:    9714218  ISSUED:    9304751  USEFUL:     762778  USELESS:     334494
L1I AVERAGE MISS LATENCY: 29.5663 cycles
L2C TOTAL     ACCESS:    2521819  HIT:    2039365  MISS:     482454
L2C LOAD      ACCESS:     182183  HIT:      88817  MISS:      93366
L2C RFO       ACCESS:      80902  HIT:      10263  MISS:      70639
L2C PREFETCH  ACCESS:    2050875  HIT:    1732900  MISS:     317975
L2C WRITEBACK ACCESS:     207859  HIT:     207385  MISS:        474
L2C PREFETCH  REQUESTED:    2383995  ISSUED:    2380143  USEFUL:      20627  USELESS:     297712
L2C AVERAGE MISS LATENCY: 128.893 cycles
LLC TOTAL     ACCESS:    1298970  HIT:     950795  MISS:     348175
LLC LOAD      ACCESS:      93236  HIT:      62029  MISS:      31207
LLC RFO       ACCESS:      70638  HIT:       6478  MISS:      64160
LLC PREFETCH  ACCESS:     967176  HIT:     714635  MISS:     252541
LLC WRITEBACK ACCESS:     167920  HIT:     167653  MISS:        267
LLC PREFETCH  REQUESTED:          0  ISSUED:          0  USEFUL:      26560  USELESS:     222219
LLC AVERAGE MISS LATENCY: 236.312 cycles
Major fault: 0 Minor fault: 16706
CPU 0 L1D next line prefetcher final stats

DRAM Statistics
 CHANNEL 0
 RQ ROW_BUFFER_HIT:     105523  ROW_BUFFER_MISS:     242319
 DBUS_CONGESTED:     234491
 WQ ROW_BUFFER_HIT:      35619  ROW_BUFFER_MISS:     124018  FULL:          0

 AVG_CONGESTED_CYCLE: 6

CPU 0 Branch Prediction Accuracy: 99.5889% MPKI: 0.70108 Average ROB Occupancy at Mispredict: 117.124

Branch types
NOT_BRANCH: 41473571 82.9471%
BRANCH_DIRECT_JUMP: 347941 0.695882%
BRANCH_INDIRECT: 148212 0.296424%
BRANCH_CONDITIONAL: 6817276 13.6346%
BRANCH_DIRECT_CALL: 570724 1.14145%
BRANCH_INDIRECT_CALL: 25133 0.050266%
BRANCH_RETURN: 617123 1.23425%
BRANCH_OTHER: 0 0%

