Initialize SIGNATURE TABLE
ST_SET: 1
ST_WAY: 256
ST_TAG_BIT: 16
ST_TAG_MASK: ffff

Initialize PATTERN TABLE
PT_SET: 512
PT_WAY: 4
SIG_DELTA_BIT: 7
C_SIG_BIT: 4
C_DELTA_BIT: 4

Initialize PREFETCH FILTER
FILTER_SET: 1024

*** ChampSim Multicore Out-of-Order Simulator ***

Warmup Instructions: 50000000
Simulation Instructions: 50000000
Number of CPUs: 1
LLC sets: 2048
LLC ways: 16
Off-chip DRAM Size: 4096 MB Channels: 1 Width: 64-bit Data Rate: 3200 MT/s

CPU 0 runs /home/ykhodke/ChampSim/dpc3_traces/server_023.champsimtrace.xz
LHT KB: 63.12
SCC KB: 1.56
Total KB: 64.69
CPU 0 L1D next line prefetcher
Heartbeat CPU 0 instructions: 10000001 cycles: 3502987 heartbeat IPC: 2.85471 cumulative IPC: 2.85471 (Simulation time: 0 hr 3 min 47 sec) 
Heartbeat CPU 0 instructions: 20000000 cycles: 7004883 heartbeat IPC: 2.8556 cumulative IPC: 2.85515 (Simulation time: 0 hr 7 min 34 sec) 
Heartbeat CPU 0 instructions: 30000001 cycles: 10500225 heartbeat IPC: 2.86095 cumulative IPC: 2.85708 (Simulation time: 0 hr 10 min 58 sec) 
Heartbeat CPU 0 instructions: 40000003 cycles: 14001648 heartbeat IPC: 2.85598 cumulative IPC: 2.85681 (Simulation time: 0 hr 14 min 15 sec) 
Heartbeat CPU 0 instructions: 50000001 cycles: 17504889 heartbeat IPC: 2.8545 cumulative IPC: 2.85634 (Simulation time: 0 hr 17 min 32 sec) 

Warmup complete CPU 0 instructions: 50000001 cycles: 17504889 (Simulation time: 0 hr 17 min 32 sec) 

Heartbeat CPU 0 instructions: 60000002 cycles: 24581513 heartbeat IPC: 1.4131 cumulative IPC: 1.4131 (Simulation time: 0 hr 20 min 39 sec) 
Heartbeat CPU 0 instructions: 70000002 cycles: 31890344 heartbeat IPC: 1.36821 cumulative IPC: 1.39029 (Simulation time: 0 hr 23 min 49 sec) 
Heartbeat CPU 0 instructions: 80000000 cycles: 39074226 heartbeat IPC: 1.392 cumulative IPC: 1.39086 (Simulation time: 0 hr 26 min 47 sec) 
Heartbeat CPU 0 instructions: 90000000 cycles: 46236308 heartbeat IPC: 1.39624 cumulative IPC: 1.3922 (Simulation time: 0 hr 28 min 39 sec) 
Heartbeat CPU 0 instructions: 100000003 cycles: 53406378 heartbeat IPC: 1.39469 cumulative IPC: 1.3927 (Simulation time: 0 hr 29 min 46 sec) 
Finished CPU 0 instructions: 50000002 cycles: 35901489 cumulative IPC: 1.3927 (Simulation time: 0 hr 29 min 46 sec) 

ChampSim completed all CPUs

Region of Interest Statistics

CPU 0 cumulative IPC: 1.3927 instructions: 50000002 cycles: 35901489
L1D TOTAL     ACCESS:   19618770  HIT:   18151658  MISS:    1467112
L1D LOAD      ACCESS:    6978512  HIT:    6317332  MISS:     661180
L1D RFO       ACCESS:    5984385  HIT:    5722991  MISS:     261394
L1D PREFETCH  ACCESS:    6655873  HIT:    6111335  MISS:     544538
L1D WRITEBACK ACCESS:          0  HIT:          0  MISS:          0
L1D PREFETCH  REQUESTED:    7031037  ISSUED:    6913209  USEFUL:     129652  USELESS:     414895
L1D AVERAGE MISS LATENCY: 25.8593 cycles
L1I TOTAL     ACCESS:   22873049  HIT:   18274649  MISS:    4598400
L1I LOAD      ACCESS:    9304961  HIT:    8716584  MISS:     588377
L1I RFO       ACCESS:          0  HIT:          0  MISS:          0
L1I PREFETCH  ACCESS:   13568088  HIT:    9558065  MISS:    4010023
L1I WRITEBACK ACCESS:          0  HIT:          0  MISS:          0
L1I PREFETCH  REQUESTED:   17766886  ISSUED:   17766886  USEFUL:    1998821  USELESS:    2011150
L1I AVERAGE MISS LATENCY: 15.752 cycles
L2C TOTAL     ACCESS:    8383257  HIT:    7534988  MISS:     848269
L2C LOAD      ACCESS:     714818  HIT:     554709  MISS:     160109
L2C RFO       ACCESS:     259548  HIT:     163902  MISS:      95646
L2C PREFETCH  ACCESS:    6909639  HIT:    6323150  MISS:     586489
L2C WRITEBACK ACCESS:     499252  HIT:     493227  MISS:       6025
L2C PREFETCH  REQUESTED:    4948938  ISSUED:    4943196  USEFUL:      27282  USELESS:     558352
L2C AVERAGE MISS LATENCY: 40.2664 cycles
LLC TOTAL     ACCESS:    2160038  HIT:    2109037  MISS:      51001
LLC LOAD      ACCESS:     160005  HIT:     154220  MISS:       5785
LLC RFO       ACCESS:      95636  HIT:      77658  MISS:      17978
LLC PREFETCH  ACCESS:    1742947  HIT:    1715890  MISS:      27057
LLC WRITEBACK ACCESS:     161450  HIT:     161269  MISS:        181
LLC PREFETCH  REQUESTED:          0  ISSUED:          0  USEFUL:       1839  USELESS:      24737
LLC AVERAGE MISS LATENCY: 188.079 cycles
Major fault: 0 Minor fault: 2786
CPU 0 L1D next line prefetcher final stats

DRAM Statistics
 CHANNEL 0
 RQ ROW_BUFFER_HIT:      15786  ROW_BUFFER_MISS:      35022
 DBUS_CONGESTED:      33453
 WQ ROW_BUFFER_HIT:       2337  ROW_BUFFER_MISS:      19341  FULL:          0

 AVG_CONGESTED_CYCLE: 6

CPU 0 Branch Prediction Accuracy: 99.6798% MPKI: 0.58608 Average ROB Occupancy at Mispredict: 132.487

Branch types
NOT_BRANCH: 40848318 81.6966%
BRANCH_DIRECT_JUMP: 548372 1.09674%
BRANCH_INDIRECT: 189802 0.379604%
BRANCH_CONDITIONAL: 6372771 12.7455%
BRANCH_DIRECT_CALL: 862207 1.72441%
BRANCH_INDIRECT_CALL: 158149 0.316298%
BRANCH_RETURN: 1020345 2.04069%
BRANCH_OTHER: 0 0%

