Initialize SIGNATURE TABLE
ST_SET: 1
ST_WAY: 256
ST_TAG_BIT: 16
ST_TAG_MASK: ffff

Initialize PATTERN TABLE
PT_SET: 512
PT_WAY: 4
SIG_DELTA_BIT: 7
C_SIG_BIT: 4
C_DELTA_BIT: 4

Initialize PREFETCH FILTER
FILTER_SET: 1024

*** ChampSim Multicore Out-of-Order Simulator ***

Warmup Instructions: 50000000
Simulation Instructions: 50000000
Number of CPUs: 1
LLC sets: 2048
LLC ways: 16
Off-chip DRAM Size: 4096 MB Channels: 1 Width: 64-bit Data Rate: 3200 MT/s

CPU 0 runs /home/ykhodke/ChampSim/dpc3_traces/server_011.champsimtrace.xz
CPU 0 L1D next line prefetcher
Heartbeat CPU 0 instructions: 10000002 cycles: 3208279 heartbeat IPC: 3.11694 cumulative IPC: 3.11694 (Simulation time: 0 hr 0 min 13 sec) 
Heartbeat CPU 0 instructions: 20000001 cycles: 6421931 heartbeat IPC: 3.11172 cumulative IPC: 3.11433 (Simulation time: 0 hr 0 min 26 sec) 
Heartbeat CPU 0 instructions: 30000001 cycles: 9679932 heartbeat IPC: 3.06937 cumulative IPC: 3.0992 (Simulation time: 0 hr 0 min 39 sec) 
Heartbeat CPU 0 instructions: 40000003 cycles: 12885674 heartbeat IPC: 3.1194 cumulative IPC: 3.10422 (Simulation time: 0 hr 0 min 52 sec) 
Heartbeat CPU 0 instructions: 50000000 cycles: 16098710 heartbeat IPC: 3.11232 cumulative IPC: 3.10584 (Simulation time: 0 hr 1 min 5 sec) 

Warmup complete CPU 0 instructions: 50000004 cycles: 16098711 (Simulation time: 0 hr 1 min 5 sec) 

Heartbeat CPU 0 instructions: 60000002 cycles: 27281986 heartbeat IPC: 0.894193 cumulative IPC: 0.894192 (Simulation time: 0 hr 1 min 17 sec) 
Heartbeat CPU 0 instructions: 70000001 cycles: 38862300 heartbeat IPC: 0.863534 cumulative IPC: 0.878596 (Simulation time: 0 hr 1 min 29 sec) 
Heartbeat CPU 0 instructions: 80000003 cycles: 48879009 heartbeat IPC: 0.998332 cumulative IPC: 0.915184 (Simulation time: 0 hr 1 min 40 sec) 
Heartbeat CPU 0 instructions: 90000001 cycles: 60191079 heartbeat IPC: 0.884011 cumulative IPC: 0.907186 (Simulation time: 0 hr 1 min 52 sec) 
Heartbeat CPU 0 instructions: 100000000 cycles: 71242474 heartbeat IPC: 0.904863 cumulative IPC: 0.906721 (Simulation time: 0 hr 2 min 4 sec) 
Finished CPU 0 instructions: 50000003 cycles: 55143775 cumulative IPC: 0.906721 (Simulation time: 0 hr 2 min 4 sec) 

ChampSim completed all CPUs

Region of Interest Statistics

CPU 0 cumulative IPC: 0.906721 instructions: 50000003 cycles: 55143775
L1D TOTAL     ACCESS:   19182277  HIT:   18149813  MISS:    1032464
L1D LOAD      ACCESS:    7264352  HIT:    6793881  MISS:     470471
L1D RFO       ACCESS:    4880064  HIT:    4797892  MISS:      82172
L1D PREFETCH  ACCESS:    7037861  HIT:    6558040  MISS:     479821
L1D WRITEBACK ACCESS:          0  HIT:          0  MISS:          0
L1D PREFETCH  REQUESTED:    7304447  ISSUED:    7204122  USEFUL:     149017  USELESS:     330799
L1D AVERAGE MISS LATENCY: 38.6923 cycles
L1I TOTAL     ACCESS:    8741707  HIT:    7562958  MISS:    1178749
L1I LOAD      ACCESS:    8741707  HIT:    7562958  MISS:    1178749
L1I RFO       ACCESS:          0  HIT:          0  MISS:          0
L1I PREFETCH  ACCESS:          0  HIT:          0  MISS:          0
L1I WRITEBACK ACCESS:          0  HIT:          0  MISS:          0
L1I PREFETCH  REQUESTED:          0  ISSUED:          0  USEFUL:          0  USELESS:          0
L1I AVERAGE MISS LATENCY: 31.9112 cycles
L2C TOTAL     ACCESS:    3468853  HIT:    2419750  MISS:    1049103
L2C LOAD      ACCESS:    1629689  HIT:     920391  MISS:     709298
L2C RFO       ACCESS:      80365  HIT:      36508  MISS:      43857
L2C PREFETCH  ACCESS:    1490638  HIT:    1195329  MISS:     295309
L2C WRITEBACK ACCESS:     268161  HIT:     267522  MISS:        639
L2C PREFETCH  REQUESTED:    3160576  ISSUED:    3160315  USEFUL:      57223  USELESS:     238122
L2C AVERAGE MISS LATENCY: 44.504 cycles
LLC TOTAL     ACCESS:    2681782  HIT:    2473283  MISS:     208499
LLC LOAD      ACCESS:     684199  HIT:     633111  MISS:      51088
LLC RFO       ACCESS:      43850  HIT:      30438  MISS:      13412
LLC PREFETCH  ACCESS:    1807719  HIT:    1664322  MISS:     143397
LLC WRITEBACK ACCESS:     146014  HIT:     145412  MISS:        602
LLC PREFETCH  REQUESTED:          0  ISSUED:          0  USEFUL:      31559  USELESS:     112304
LLC AVERAGE MISS LATENCY: 162.119 cycles
Major fault: 0 Minor fault: 6971
CPU 0 L1D next line prefetcher final stats

DRAM Statistics
 CHANNEL 0
 RQ ROW_BUFFER_HIT:      40345  ROW_BUFFER_MISS:     167546
 DBUS_CONGESTED:      81493
 WQ ROW_BUFFER_HIT:      12781  ROW_BUFFER_MISS:      50333  FULL:          0

 AVG_CONGESTED_CYCLE: 5

CPU 0 Branch Prediction Accuracy: 97.5565% MPKI: 4.59006 Average ROB Occupancy at Mispredict: 43.7919

Branch types
NOT_BRANCH: 40607199 81.2144%
BRANCH_DIRECT_JUMP: 451601 0.903202%
BRANCH_INDIRECT: 151580 0.30316%
BRANCH_CONDITIONAL: 7041635 14.0833%
BRANCH_DIRECT_CALL: 647827 1.29565%
BRANCH_INDIRECT_CALL: 211373 0.422746%
BRANCH_RETURN: 888439 1.77688%
BRANCH_OTHER: 0 0%

