Initialize SIGNATURE TABLE
ST_SET: 1
ST_WAY: 256
ST_TAG_BIT: 16
ST_TAG_MASK: ffff

Initialize PATTERN TABLE
PT_SET: 512
PT_WAY: 4
SIG_DELTA_BIT: 7
C_SIG_BIT: 4
C_DELTA_BIT: 4

Initialize PREFETCH FILTER
FILTER_SET: 1024

*** ChampSim Multicore Out-of-Order Simulator ***

Warmup Instructions: 50000000
Simulation Instructions: 50000000
Number of CPUs: 1
LLC sets: 2048
LLC ways: 16
Off-chip DRAM Size: 4096 MB Channels: 1 Width: 64-bit Data Rate: 3200 MT/s

CPU 0 runs /home/ykhodke/ChampSim/dpc3_traces/server_033.champsimtrace.xz
L1I D-JOLT instruction prefetcher has been constructed!
CPU 0 L1D next line prefetcher
Heartbeat CPU 0 instructions: 10000001 cycles: 3342238 heartbeat IPC: 2.99201 cumulative IPC: 2.99201 (Simulation time: 0 hr 3 min 44 sec) 
Heartbeat CPU 0 instructions: 20000002 cycles: 6682612 heartbeat IPC: 2.99368 cumulative IPC: 2.99284 (Simulation time: 0 hr 7 min 15 sec) 
Heartbeat CPU 0 instructions: 30000001 cycles: 10013165 heartbeat IPC: 3.0025 cumulative IPC: 2.99606 (Simulation time: 0 hr 10 min 31 sec) 
Heartbeat CPU 0 instructions: 40000000 cycles: 13353162 heartbeat IPC: 2.99401 cumulative IPC: 2.99555 (Simulation time: 0 hr 13 min 54 sec) 
Heartbeat CPU 0 instructions: 50000000 cycles: 16692358 heartbeat IPC: 2.99473 cumulative IPC: 2.99538 (Simulation time: 0 hr 17 min 7 sec) 

Warmup complete CPU 0 instructions: 50000004 cycles: 16692359 (Simulation time: 0 hr 17 min 7 sec) 

Heartbeat CPU 0 instructions: 60000000 cycles: 23227574 heartbeat IPC: 1.53017 cumulative IPC: 1.53017 (Simulation time: 0 hr 20 min 29 sec) 
Heartbeat CPU 0 instructions: 70000000 cycles: 29729527 heartbeat IPC: 1.538 cumulative IPC: 1.53408 (Simulation time: 0 hr 23 min 53 sec) 
Heartbeat CPU 0 instructions: 80000000 cycles: 37059984 heartbeat IPC: 1.36417 cumulative IPC: 1.47293 (Simulation time: 0 hr 27 min 3 sec) 
Heartbeat CPU 0 instructions: 90000003 cycles: 43665986 heartbeat IPC: 1.51378 cumulative IPC: 1.48293 (Simulation time: 0 hr 29 min 38 sec) 
Heartbeat CPU 0 instructions: 100000003 cycles: 50211879 heartbeat IPC: 1.52768 cumulative IPC: 1.49167 (Simulation time: 0 hr 31 min 15 sec) 
Finished CPU 0 instructions: 50000003 cycles: 33519521 cumulative IPC: 1.49167 (Simulation time: 0 hr 31 min 15 sec) 

ChampSim completed all CPUs

Region of Interest Statistics

CPU 0 cumulative IPC: 1.49167 instructions: 50000003 cycles: 33519521
L1D TOTAL     ACCESS:   18222113  HIT:   16739837  MISS:    1482276
L1D LOAD      ACCESS:    6136749  HIT:    5453137  MISS:     683612
L1D RFO       ACCESS:    6163070  HIT:    6013793  MISS:     149277
L1D PREFETCH  ACCESS:    5922294  HIT:    5272907  MISS:     649387
L1D WRITEBACK ACCESS:          0  HIT:          0  MISS:          0
L1D PREFETCH  REQUESTED:    6178547  ISSUED:    6058074  USEFUL:     141169  USELESS:     508224
L1D AVERAGE MISS LATENCY: 23.7306 cycles
L1I TOTAL     ACCESS:   19593863  HIT:   15485186  MISS:    4108677
L1I LOAD      ACCESS:    9684234  HIT:    9629988  MISS:      54246
L1I RFO       ACCESS:          0  HIT:          0  MISS:          0
L1I PREFETCH  ACCESS:    9909629  HIT:    5855198  MISS:    4054431
L1I WRITEBACK ACCESS:          0  HIT:          0  MISS:          0
L1I PREFETCH  REQUESTED:   10613532  ISSUED:   10419472  USEFUL:    3322141  USELESS:     732250
L1I AVERAGE MISS LATENCY: 15.8072 cycles
L2C TOTAL     ACCESS:    7748208  HIT:    7391081  MISS:     357127
L2C LOAD      ACCESS:     724736  HIT:     606611  MISS:     118125
L2C RFO       ACCESS:     147860  HIT:     127446  MISS:      20414
L2C PREFETCH  ACCESS:    6509133  HIT:    6292668  MISS:     216465
L2C WRITEBACK ACCESS:     366479  HIT:     364356  MISS:       2123
L2C PREFETCH  REQUESTED:    6055933  ISSUED:    6032202  USEFUL:       8775  USELESS:     207444
L2C AVERAGE MISS LATENCY: 48.4411 cycles
LLC TOTAL     ACCESS:    2159932  HIT:    2096652  MISS:      63280
LLC LOAD      ACCESS:     118081  HIT:     104112  MISS:      13969
LLC RFO       ACCESS:      20414  HIT:      17131  MISS:       3283
LLC PREFETCH  ACCESS:    1917596  HIT:    1871858  MISS:      45738
LLC WRITEBACK ACCESS:     103841  HIT:     103551  MISS:        290
LLC PREFETCH  REQUESTED:          0  ISSUED:          0  USEFUL:       6442  USELESS:      37711
LLC AVERAGE MISS LATENCY: 174.955 cycles
Major fault: 0 Minor fault: 2486
CPU 0 L1D next line prefetcher final stats

DRAM Statistics
 CHANNEL 0
 RQ ROW_BUFFER_HIT:       9465  ROW_BUFFER_MISS:      53512
 DBUS_CONGESTED:      24562
 WQ ROW_BUFFER_HIT:       3938  ROW_BUFFER_MISS:      17343  FULL:          0

 AVG_CONGESTED_CYCLE: 5

CPU 0 Branch Prediction Accuracy: 99.9029% MPKI: 0.19006 Average ROB Occupancy at Mispredict: 255.819

Branch types
NOT_BRANCH: 40217116 80.4342%
BRANCH_DIRECT_JUMP: 774599 1.5492%
BRANCH_INDIRECT: 108806 0.217612%
BRANCH_CONDITIONAL: 6379333 12.7587%
BRANCH_DIRECT_CALL: 1048809 2.09762%
BRANCH_INDIRECT_CALL: 211109 0.422218%
BRANCH_RETURN: 1259925 2.51985%
BRANCH_OTHER: 0 0%

