Initialize SIGNATURE TABLE
ST_SET: 1
ST_WAY: 256
ST_TAG_BIT: 16
ST_TAG_MASK: ffff

Initialize PATTERN TABLE
PT_SET: 512
PT_WAY: 4
SIG_DELTA_BIT: 7
C_SIG_BIT: 4
C_DELTA_BIT: 4

Initialize PREFETCH FILTER
FILTER_SET: 1024

*** ChampSim Multicore Out-of-Order Simulator ***

Warmup Instructions: 50000000
Simulation Instructions: 50000000
Number of CPUs: 1
LLC sets: 2048
LLC ways: 16
Off-chip DRAM Size: 4096 MB Channels: 1 Width: 64-bit Data Rate: 3200 MT/s

CPU 0 runs /home/ykhodke/ChampSim/dpc3_traces/server_004.champsimtrace.xz
L1I D-JOLT instruction prefetcher has been constructed!
CPU 0 L1D next line prefetcher
Heartbeat CPU 0 instructions: 10000002 cycles: 3226620 heartbeat IPC: 3.09922 cumulative IPC: 3.09922 (Simulation time: 0 hr 2 min 44 sec) 
Heartbeat CPU 0 instructions: 20000002 cycles: 6560361 heartbeat IPC: 2.99963 cumulative IPC: 3.04861 (Simulation time: 0 hr 5 min 56 sec) 
Heartbeat CPU 0 instructions: 30000000 cycles: 11677457 heartbeat IPC: 1.95423 cumulative IPC: 2.56905 (Simulation time: 0 hr 9 min 59 sec) 
Heartbeat CPU 0 instructions: 40000003 cycles: 15424526 heartbeat IPC: 2.66875 cumulative IPC: 2.59327 (Simulation time: 0 hr 14 min 15 sec) 
Heartbeat CPU 0 instructions: 50000003 cycles: 18651621 heartbeat IPC: 3.09876 cumulative IPC: 2.68073 (Simulation time: 0 hr 18 min 0 sec) 

Warmup complete CPU 0 instructions: 50000003 cycles: 18651621 (Simulation time: 0 hr 18 min 0 sec) 

Heartbeat CPU 0 instructions: 60000002 cycles: 27214087 heartbeat IPC: 1.16789 cumulative IPC: 1.16789 (Simulation time: 0 hr 21 min 20 sec) 
Heartbeat CPU 0 instructions: 70000000 cycles: 35279505 heartbeat IPC: 1.23986 cumulative IPC: 1.2028 (Simulation time: 0 hr 24 min 26 sec) 
Heartbeat CPU 0 instructions: 80000001 cycles: 56179716 heartbeat IPC: 0.478464 cumulative IPC: 0.799401 (Simulation time: 0 hr 28 min 5 sec) 
Heartbeat CPU 0 instructions: 90000003 cycles: 71105486 heartbeat IPC: 0.669982 cumulative IPC: 0.762575 (Simulation time: 0 hr 29 min 24 sec) 
Heartbeat CPU 0 instructions: 100000003 cycles: 79650431 heartbeat IPC: 1.17028 cumulative IPC: 0.819688 (Simulation time: 0 hr 29 min 53 sec) 
Finished CPU 0 instructions: 50000000 cycles: 60998810 cumulative IPC: 0.819688 (Simulation time: 0 hr 29 min 53 sec) 

ChampSim completed all CPUs

Region of Interest Statistics

CPU 0 cumulative IPC: 0.819688 instructions: 50000000 cycles: 60998810
L1D TOTAL     ACCESS:   21615793  HIT:   17544792  MISS:    4071001
L1D LOAD      ACCESS:    8591917  HIT:    6573252  MISS:    2018665
L1D RFO       ACCESS:    4642710  HIT:    4535922  MISS:     106788
L1D PREFETCH  ACCESS:    8381166  HIT:    6435618  MISS:    1945548
L1D WRITEBACK ACCESS:          0  HIT:          0  MISS:          0
L1D PREFETCH  REQUESTED:    8626998  ISSUED:    8537956  USEFUL:     105980  USELESS:    1839563
L1D AVERAGE MISS LATENCY: 23.041 cycles
L1I TOTAL     ACCESS:   17338951  HIT:   15710323  MISS:    1628628
L1I LOAD      ACCESS:   10724548  HIT:   10631423  MISS:      93125
L1I RFO       ACCESS:          0  HIT:          0  MISS:          0
L1I PREFETCH  ACCESS:    6614403  HIT:    5078900  MISS:    1535503
L1I WRITEBACK ACCESS:          0  HIT:          0  MISS:          0
L1I PREFETCH  REQUESTED:    7317435  ISSUED:    6958568  USEFUL:    1068677  USELESS:     466679
L1I AVERAGE MISS LATENCY: 34.3211 cycles
L2C TOTAL     ACCESS:    7340593  HIT:    6255549  MISS:    1085044
L2C LOAD      ACCESS:    2063265  HIT:    1821823  MISS:     241442
L2C RFO       ACCESS:     105588  HIT:      57328  MISS:      48260
L2C PREFETCH  ACCESS:    4926713  HIT:    4132964  MISS:     793749
L2C WRITEBACK ACCESS:     245027  HIT:     243434  MISS:       1593
L2C PREFETCH  REQUESTED:    6544244  ISSUED:    6541914  USEFUL:      24754  USELESS:     769044
L2C AVERAGE MISS LATENCY: 58.4765 cycles
LLC TOTAL     ACCESS:    2356888  HIT:    2120240  MISS:     236648
LLC LOAD      ACCESS:     241054  HIT:     199539  MISS:      41515
LLC RFO       ACCESS:      48256  HIT:      33338  MISS:      14918
LLC PREFETCH  ACCESS:    1927505  HIT:    1747716  MISS:     179789
LLC WRITEBACK ACCESS:     140073  HIT:     139647  MISS:        426
LLC PREFETCH  REQUESTED:          0  ISSUED:          0  USEFUL:      19892  USELESS:     160738
LLC AVERAGE MISS LATENCY: 177.522 cycles
Major fault: 0 Minor fault: 7602
CPU 0 L1D next line prefetcher final stats

DRAM Statistics
 CHANNEL 0
 RQ ROW_BUFFER_HIT:      46654  ROW_BUFFER_MISS:     189549
 DBUS_CONGESTED:      95522
 WQ ROW_BUFFER_HIT:      10975  ROW_BUFFER_MISS:      42773  FULL:          0

 AVG_CONGESTED_CYCLE: 5

CPU 0 Branch Prediction Accuracy: 98.1603% MPKI: 3.89124 Average ROB Occupancy at Mispredict: 67.7443

Branch types
NOT_BRANCH: 39423755 78.8475%
BRANCH_DIRECT_JUMP: 551642 1.10328%
BRANCH_INDIRECT: 139368 0.278736%
BRANCH_CONDITIONAL: 7920858 15.8417%
BRANCH_DIRECT_CALL: 776072 1.55214%
BRANCH_INDIRECT_CALL: 194644 0.389288%
BRANCH_RETURN: 993311 1.98662%
BRANCH_OTHER: 0 0%

