Initialize SIGNATURE TABLE
ST_SET: 1
ST_WAY: 256
ST_TAG_BIT: 16
ST_TAG_MASK: ffff

Initialize PATTERN TABLE
PT_SET: 512
PT_WAY: 4
SIG_DELTA_BIT: 7
C_SIG_BIT: 4
C_DELTA_BIT: 4

Initialize PREFETCH FILTER
FILTER_SET: 1024

*** ChampSim Multicore Out-of-Order Simulator ***

Warmup Instructions: 50000000
Simulation Instructions: 50000000
Number of CPUs: 1
LLC sets: 2048
LLC ways: 16
Off-chip DRAM Size: 4096 MB Channels: 1 Width: 64-bit Data Rate: 3200 MT/s

CPU 0 runs /home/ykhodke/ChampSim/dpc3_traces/server_010.champsimtrace.xz
LHT KB: 63.12
SCC KB: 1.56
Total KB: 64.69
CPU 0 L1D next line prefetcher
Heartbeat CPU 0 instructions: 10000000 cycles: 3202628 heartbeat IPC: 3.12244 cumulative IPC: 3.12244 (Simulation time: 0 hr 3 min 31 sec) 
Heartbeat CPU 0 instructions: 20000002 cycles: 6403275 heartbeat IPC: 3.12437 cumulative IPC: 3.1234 (Simulation time: 0 hr 6 min 52 sec) 
Heartbeat CPU 0 instructions: 30000001 cycles: 9606285 heartbeat IPC: 3.12206 cumulative IPC: 3.12296 (Simulation time: 0 hr 9 min 57 sec) 
Heartbeat CPU 0 instructions: 40000000 cycles: 12805286 heartbeat IPC: 3.12598 cumulative IPC: 3.12371 (Simulation time: 0 hr 13 min 2 sec) 
Heartbeat CPU 0 instructions: 50000003 cycles: 16010330 heartbeat IPC: 3.12008 cumulative IPC: 3.12298 (Simulation time: 0 hr 15 min 44 sec) 

Warmup complete CPU 0 instructions: 50000003 cycles: 16010330 (Simulation time: 0 hr 15 min 44 sec) 

Heartbeat CPU 0 instructions: 60000001 cycles: 23944648 heartbeat IPC: 1.26035 cumulative IPC: 1.26035 (Simulation time: 0 hr 18 min 40 sec) 
Heartbeat CPU 0 instructions: 70000000 cycles: 32090786 heartbeat IPC: 1.22758 cumulative IPC: 1.24375 (Simulation time: 0 hr 21 min 36 sec) 
Heartbeat CPU 0 instructions: 80000003 cycles: 40333050 heartbeat IPC: 1.21326 cumulative IPC: 1.23341 (Simulation time: 0 hr 24 min 24 sec) 
Heartbeat CPU 0 instructions: 90000002 cycles: 48210289 heartbeat IPC: 1.26948 cumulative IPC: 1.24224 (Simulation time: 0 hr 26 min 54 sec) 
Heartbeat CPU 0 instructions: 100000003 cycles: 69162518 heartbeat IPC: 0.477276 cumulative IPC: 0.940695 (Simulation time: 0 hr 29 min 26 sec) 
Finished CPU 0 instructions: 50000000 cycles: 53152188 cumulative IPC: 0.940695 (Simulation time: 0 hr 29 min 26 sec) 

ChampSim completed all CPUs

Region of Interest Statistics

CPU 0 cumulative IPC: 0.940695 instructions: 50000000 cycles: 53152188
L1D TOTAL     ACCESS:   20105335  HIT:   16879781  MISS:    3225554
L1D LOAD      ACCESS:    7805486  HIT:    6213762  MISS:    1591724
L1D RFO       ACCESS:    4718411  HIT:    4623969  MISS:      94442
L1D PREFETCH  ACCESS:    7581438  HIT:    6042050  MISS:    1539388
L1D WRITEBACK ACCESS:          0  HIT:          0  MISS:          0
L1D PREFETCH  REQUESTED:    7839671  ISSUED:    7740997  USEFUL:     118594  USELESS:    1420767
L1D AVERAGE MISS LATENCY: 23.7452 cycles
L1I TOTAL     ACCESS:   19201197  HIT:   16997207  MISS:    2203990
L1I LOAD      ACCESS:    9893088  HIT:    9498054  MISS:     395034
L1I RFO       ACCESS:          0  HIT:          0  MISS:          0
L1I PREFETCH  ACCESS:    9308109  HIT:    7499153  MISS:    1808956
L1I WRITEBACK ACCESS:          0  HIT:          0  MISS:          0
L1I PREFETCH  REQUESTED:   15373911  ISSUED:   15373911  USEFUL:     883390  USELESS:     925539
L1I AVERAGE MISS LATENCY: 26.7511 cycles
L2C TOTAL     ACCESS:    7034265  HIT:    5689291  MISS:    1344974
L2C LOAD      ACCESS:    1644307  HIT:    1378142  MISS:     266165
L2C RFO       ACCESS:      93336  HIT:      47100  MISS:      46236
L2C PREFETCH  ACCESS:    5031277  HIT:    4000977  MISS:    1030300
L2C WRITEBACK ACCESS:     265345  HIT:     263072  MISS:       2273
L2C PREFETCH  REQUESTED:    6038319  ISSUED:    6034363  USEFUL:      30461  USELESS:    1000330
L2C AVERAGE MISS LATENCY: 51.2263 cycles
LLC TOTAL     ACCESS:    2532465  HIT:    2335599  MISS:     196866
LLC LOAD      ACCESS:     266089  HIT:     239774  MISS:      26315
LLC RFO       ACCESS:      46223  HIT:      35998  MISS:      10225
LLC PREFETCH  ACCESS:    2063265  HIT:    1903234  MISS:     160031
LLC WRITEBACK ACCESS:     156888  HIT:     156593  MISS:        295
LLC PREFETCH  REQUESTED:          0  ISSUED:          0  USEFUL:      10896  USELESS:     148778
LLC AVERAGE MISS LATENCY: 173.438 cycles
Major fault: 0 Minor fault: 5624
CPU 0 L1D next line prefetcher final stats

DRAM Statistics
 CHANNEL 0
 RQ ROW_BUFFER_HIT:      34449  ROW_BUFFER_MISS:     162099
 DBUS_CONGESTED:      83159
 WQ ROW_BUFFER_HIT:      11535  ROW_BUFFER_MISS:      45722  FULL:          0

 AVG_CONGESTED_CYCLE: 5

CPU 0 Branch Prediction Accuracy: 99.5528% MPKI: 0.89798 Average ROB Occupancy at Mispredict: 115.674

Branch types
NOT_BRANCH: 39958804 79.9176%
BRANCH_DIRECT_JUMP: 449946 0.899892%
BRANCH_INDIRECT: 140210 0.28042%
BRANCH_CONDITIONAL: 7679679 15.3594%
BRANCH_DIRECT_CALL: 701578 1.40316%
BRANCH_INDIRECT_CALL: 168971 0.337942%
BRANCH_RETURN: 900560 1.80112%
BRANCH_OTHER: 0 0%

