Initialize SIGNATURE TABLE
ST_SET: 1
ST_WAY: 256
ST_TAG_BIT: 16
ST_TAG_MASK: ffff

Initialize PATTERN TABLE
PT_SET: 512
PT_WAY: 4
SIG_DELTA_BIT: 7
C_SIG_BIT: 4
C_DELTA_BIT: 4

Initialize PREFETCH FILTER
FILTER_SET: 1024

*** ChampSim Multicore Out-of-Order Simulator ***

Warmup Instructions: 50000000
Simulation Instructions: 50000000
Number of CPUs: 1
LLC sets: 2048
LLC ways: 16
Off-chip DRAM Size: 4096 MB Channels: 1 Width: 64-bit Data Rate: 3200 MT/s

CPU 0 runs /home/ykhodke/ChampSim/dpc3_traces/server_026.champsimtrace.xz
L1I D-JOLT instruction prefetcher has been constructed!
CPU 0 L1D next line prefetcher
Heartbeat CPU 0 instructions: 10000000 cycles: 3521675 heartbeat IPC: 2.83956 cumulative IPC: 2.83956 (Simulation time: 0 hr 2 min 54 sec) 
Heartbeat CPU 0 instructions: 20000002 cycles: 7048051 heartbeat IPC: 2.83577 cumulative IPC: 2.83766 (Simulation time: 0 hr 5 min 45 sec) 
Heartbeat CPU 0 instructions: 30000000 cycles: 10564896 heartbeat IPC: 2.84346 cumulative IPC: 2.83959 (Simulation time: 0 hr 8 min 29 sec) 
Heartbeat CPU 0 instructions: 40000003 cycles: 14090933 heartbeat IPC: 2.83605 cumulative IPC: 2.83871 (Simulation time: 0 hr 11 min 13 sec) 
Heartbeat CPU 0 instructions: 50000000 cycles: 17609945 heartbeat IPC: 2.84171 cumulative IPC: 2.8393 (Simulation time: 0 hr 13 min 56 sec) 

Warmup complete CPU 0 instructions: 50000004 cycles: 17609946 (Simulation time: 0 hr 13 min 56 sec) 

*** Reached end of trace for Core: 0 Repeating trace: /home/ykhodke/ChampSim/dpc3_traces/server_026.champsimtrace.xz
Heartbeat CPU 0 instructions: 60000000 cycles: 24539444 heartbeat IPC: 1.44311 cumulative IPC: 1.44311 (Simulation time: 0 hr 16 min 56 sec) 
Heartbeat CPU 0 instructions: 70000003 cycles: 31343958 heartbeat IPC: 1.46961 cumulative IPC: 1.45624 (Simulation time: 0 hr 19 min 51 sec) 
Heartbeat CPU 0 instructions: 80000002 cycles: 38246067 heartbeat IPC: 1.44883 cumulative IPC: 1.45376 (Simulation time: 0 hr 23 min 13 sec) 
Heartbeat CPU 0 instructions: 90000001 cycles: 45045225 heartbeat IPC: 1.47077 cumulative IPC: 1.45798 (Simulation time: 0 hr 25 min 50 sec) 
Heartbeat CPU 0 instructions: 100000000 cycles: 51922339 heartbeat IPC: 1.4541 cumulative IPC: 1.4572 (Simulation time: 0 hr 27 min 41 sec) 
Finished CPU 0 instructions: 50000000 cycles: 34312394 cumulative IPC: 1.4572 (Simulation time: 0 hr 27 min 41 sec) 

ChampSim completed all CPUs

Region of Interest Statistics

CPU 0 cumulative IPC: 1.4572 instructions: 50000000 cycles: 34312394
L1D TOTAL     ACCESS:   19758608  HIT:   18113594  MISS:    1645014
L1D LOAD      ACCESS:    6927041  HIT:    6198206  MISS:     728835
L1D RFO       ACCESS:    6241071  HIT:    5954854  MISS:     286217
L1D PREFETCH  ACCESS:    6590496  HIT:    5960534  MISS:     629962
L1D WRITEBACK ACCESS:          0  HIT:          0  MISS:          0
L1D PREFETCH  REQUESTED:    6974471  ISSUED:    6832018  USEFUL:     152239  USELESS:     477733
L1D AVERAGE MISS LATENCY: 24.3635 cycles
L1I TOTAL     ACCESS:   14190225  HIT:   11097664  MISS:    3092561
L1I LOAD      ACCESS:    9489500  HIT:    9446649  MISS:      42851
L1I RFO       ACCESS:          0  HIT:          0  MISS:          0
L1I PREFETCH  ACCESS:    4700725  HIT:    1651015  MISS:    3049710
L1I WRITEBACK ACCESS:          0  HIT:          0  MISS:          0
L1I PREFETCH  REQUESTED:    4897147  ISSUED:    4870035  USEFUL:    2733419  USELESS:     316271
L1I AVERAGE MISS LATENCY: 19.9877 cycles
L2C TOTAL     ACCESS:    6642812  HIT:    5727156  MISS:     915656
L2C LOAD      ACCESS:     706022  HIT:     555753  MISS:     150269
L2C RFO       ACCESS:     284549  HIT:     184230  MISS:     100319
L2C PREFETCH  ACCESS:    5091067  HIT:    4430428  MISS:     660639
L2C WRITEBACK ACCESS:     561174  HIT:     556745  MISS:       4429
L2C PREFETCH  REQUESTED:    4511005  ISSUED:    4502412  USEFUL:      14463  USELESS:     646113
L2C AVERAGE MISS LATENCY: 37.3877 cycles
LLC TOTAL     ACCESS:    2310113  HIT:    2272533  MISS:      37580
LLC LOAD      ACCESS:     150009  HIT:     146319  MISS:       3690
LLC RFO       ACCESS:     100314  HIT:      85634  MISS:      14680
LLC PREFETCH  ACCESS:    1890063  HIT:    1871055  MISS:      19008
LLC WRITEBACK ACCESS:     169727  HIT:     169525  MISS:        202
LLC PREFETCH  REQUESTED:          0  ISSUED:          0  USEFUL:       1138  USELESS:      18220
LLC AVERAGE MISS LATENCY: 186.702 cycles
Major fault: 0 Minor fault: 2173
CPU 0 L1D next line prefetcher final stats

DRAM Statistics
 CHANNEL 0
 RQ ROW_BUFFER_HIT:      12723  ROW_BUFFER_MISS:      24648
 DBUS_CONGESTED:      23582
 WQ ROW_BUFFER_HIT:       1504  ROW_BUFFER_MISS:      14408  FULL:          0

 AVG_CONGESTED_CYCLE: 6

CPU 0 Branch Prediction Accuracy: 99.822% MPKI: 0.32584 Average ROB Occupancy at Mispredict: 203.865

Branch types
NOT_BRANCH: 40848573 81.6971%
BRANCH_DIRECT_JUMP: 522045 1.04409%
BRANCH_INDIRECT: 204034 0.408068%
BRANCH_CONDITIONAL: 6212963 12.4259%
BRANCH_DIRECT_CALL: 932393 1.86479%
BRANCH_INDIRECT_CALL: 173764 0.347528%
BRANCH_RETURN: 1106152 2.2123%
BRANCH_OTHER: 0 0%

