Initialize SIGNATURE TABLE
ST_SET: 1
ST_WAY: 256
ST_TAG_BIT: 16
ST_TAG_MASK: ffff

Initialize PATTERN TABLE
PT_SET: 512
PT_WAY: 4
SIG_DELTA_BIT: 7
C_SIG_BIT: 4
C_DELTA_BIT: 4

Initialize PREFETCH FILTER
FILTER_SET: 1024

*** ChampSim Multicore Out-of-Order Simulator ***

Warmup Instructions: 50000000
Simulation Instructions: 50000000
Number of CPUs: 1
LLC sets: 2048
LLC ways: 16
Off-chip DRAM Size: 4096 MB Channels: 1 Width: 64-bit Data Rate: 3200 MT/s

CPU 0 runs /home/ykhodke/ChampSim/dpc3_traces/server_035.champsimtrace.xz
L1I D-JOLT instruction prefetcher has been constructed!
CPU 0 L1D next line prefetcher
Heartbeat CPU 0 instructions: 10000001 cycles: 3338748 heartbeat IPC: 2.99514 cumulative IPC: 2.99514 (Simulation time: 0 hr 3 min 20 sec) 
Heartbeat CPU 0 instructions: 20000000 cycles: 6676736 heartbeat IPC: 2.99582 cumulative IPC: 2.99548 (Simulation time: 0 hr 6 min 43 sec) 
Heartbeat CPU 0 instructions: 30000000 cycles: 10012150 heartbeat IPC: 2.99813 cumulative IPC: 2.99636 (Simulation time: 0 hr 9 min 42 sec) 
Heartbeat CPU 0 instructions: 40000000 cycles: 13352634 heartbeat IPC: 2.99358 cumulative IPC: 2.99566 (Simulation time: 0 hr 13 min 8 sec) 
Heartbeat CPU 0 instructions: 50000003 cycles: 16690350 heartbeat IPC: 2.99606 cumulative IPC: 2.99574 (Simulation time: 0 hr 16 min 9 sec) 

Warmup complete CPU 0 instructions: 50000003 cycles: 16690350 (Simulation time: 0 hr 16 min 9 sec) 

Heartbeat CPU 0 instructions: 60000001 cycles: 25196453 heartbeat IPC: 1.17563 cumulative IPC: 1.17563 (Simulation time: 0 hr 19 min 22 sec) 
Heartbeat CPU 0 instructions: 70000003 cycles: 33344608 heartbeat IPC: 1.22727 cumulative IPC: 1.20089 (Simulation time: 0 hr 22 min 40 sec) 
Heartbeat CPU 0 instructions: 80000001 cycles: 41642493 heartbeat IPC: 1.20513 cumulative IPC: 1.2023 (Simulation time: 0 hr 25 min 35 sec) 
Heartbeat CPU 0 instructions: 90000002 cycles: 49276829 heartbeat IPC: 1.30987 cumulative IPC: 1.2275 (Simulation time: 0 hr 27 min 53 sec) 
Heartbeat CPU 0 instructions: 100000002 cycles: 57557105 heartbeat IPC: 1.20769 cumulative IPC: 1.22349 (Simulation time: 0 hr 29 min 14 sec) 
Finished CPU 0 instructions: 50000003 cycles: 40866756 cumulative IPC: 1.22349 (Simulation time: 0 hr 29 min 14 sec) 

ChampSim completed all CPUs

Region of Interest Statistics

CPU 0 cumulative IPC: 1.22349 instructions: 50000003 cycles: 40866756
L1D TOTAL     ACCESS:   18207262  HIT:   16703098  MISS:    1504164
L1D LOAD      ACCESS:    6133179  HIT:    5431383  MISS:     701796
L1D RFO       ACCESS:    6157329  HIT:    6005116  MISS:     152213
L1D PREFETCH  ACCESS:    5916754  HIT:    5266599  MISS:     650155
L1D WRITEBACK ACCESS:          0  HIT:          0  MISS:          0
L1D PREFETCH  REQUESTED:    6176957  ISSUED:    6076329  USEFUL:     138437  USELESS:     511723
L1D AVERAGE MISS LATENCY: 44.1233 cycles
L1I TOTAL     ACCESS:   19266922  HIT:   15411093  MISS:    3855829
L1I LOAD      ACCESS:    9701971  HIT:    9650828  MISS:      51143
L1I RFO       ACCESS:          0  HIT:          0  MISS:          0
L1I PREFETCH  ACCESS:    9564951  HIT:    5760265  MISS:    3804686
L1I WRITEBACK ACCESS:          0  HIT:          0  MISS:          0
L1I PREFETCH  REQUESTED:   10436025  ISSUED:   10320675  USEFUL:    3329352  USELESS:     475313
L1I AVERAGE MISS LATENCY: 16.3486 cycles
L2C TOTAL     ACCESS:    7253236  HIT:    6902866  MISS:     350370
L2C LOAD      ACCESS:     726866  HIT:     596267  MISS:     130599
L2C RFO       ACCESS:     150414  HIT:     129719  MISS:      20695
L2C PREFETCH  ACCESS:    6010834  HIT:    5813521  MISS:     197313
L2C WRITEBACK ACCESS:     365122  HIT:     363359  MISS:       1763
L2C PREFETCH  REQUESTED:    5973946  ISSUED:    5948832  USEFUL:      13158  USELESS:     184041
L2C AVERAGE MISS LATENCY: 143.965 cycles
LLC TOTAL     ACCESS:    2567911  HIT:    2267525  MISS:     300386
LLC LOAD      ACCESS:     130248  HIT:      47820  MISS:      82428
LLC RFO       ACCESS:      20684  HIT:       9062  MISS:      11622
LLC PREFETCH  ACCESS:    2312777  HIT:    2107598  MISS:     205179
LLC WRITEBACK ACCESS:     104202  HIT:     103045  MISS:       1157
LLC PREFETCH  REQUESTED:          0  ISSUED:          0  USEFUL:      31999  USELESS:     172387
LLC AVERAGE MISS LATENCY: 217.981 cycles
Major fault: 0 Minor fault: 5549
CPU 0 L1D next line prefetcher final stats

DRAM Statistics
 CHANNEL 0
 RQ ROW_BUFFER_HIT:      76009  ROW_BUFFER_MISS:     223213
 DBUS_CONGESTED:     172518
 WQ ROW_BUFFER_HIT:      18035  ROW_BUFFER_MISS:      73241  FULL:          0

 AVG_CONGESTED_CYCLE: 5

CPU 0 Branch Prediction Accuracy: 99.9115% MPKI: 0.17232 Average ROB Occupancy at Mispredict: 218.656

Branch types
NOT_BRANCH: 40267406 80.5348%
BRANCH_DIRECT_JUMP: 771900 1.5438%
BRANCH_INDIRECT: 108179 0.216358%
BRANCH_CONDITIONAL: 6307187 12.6144%
BRANCH_DIRECT_CALL: 1060898 2.1218%
BRANCH_INDIRECT_CALL: 211720 0.42344%
BRANCH_RETURN: 1272639 2.54528%
BRANCH_OTHER: 0 0%

