Initialize SIGNATURE TABLE
ST_SET: 1
ST_WAY: 256
ST_TAG_BIT: 16
ST_TAG_MASK: ffff

Initialize PATTERN TABLE
PT_SET: 512
PT_WAY: 4
SIG_DELTA_BIT: 7
C_SIG_BIT: 4
C_DELTA_BIT: 4

Initialize PREFETCH FILTER
FILTER_SET: 1024

*** ChampSim Multicore Out-of-Order Simulator ***

Warmup Instructions: 50000000
Simulation Instructions: 50000000
Number of CPUs: 1
LLC sets: 2048
LLC ways: 16
Off-chip DRAM Size: 4096 MB Channels: 1 Width: 64-bit Data Rate: 3200 MT/s

CPU 0 runs /home/ykhodke/ChampSim/dpc3_traces/server_019.champsimtrace.xz
L1I D-JOLT instruction prefetcher has been constructed!
CPU 0 L1D next line prefetcher
Heartbeat CPU 0 instructions: 10000002 cycles: 3622952 heartbeat IPC: 2.76018 cumulative IPC: 2.76018 (Simulation time: 0 hr 3 min 57 sec) 
Heartbeat CPU 0 instructions: 20000003 cycles: 7247703 heartbeat IPC: 2.75881 cumulative IPC: 2.7595 (Simulation time: 0 hr 7 min 16 sec) 
Heartbeat CPU 0 instructions: 30000002 cycles: 10871242 heartbeat IPC: 2.75973 cumulative IPC: 2.75957 (Simulation time: 0 hr 10 min 32 sec) 
Heartbeat CPU 0 instructions: 40000002 cycles: 14506668 heartbeat IPC: 2.75071 cumulative IPC: 2.75735 (Simulation time: 0 hr 14 min 17 sec) 
Heartbeat CPU 0 instructions: 50000001 cycles: 18130480 heartbeat IPC: 2.75952 cumulative IPC: 2.75779 (Simulation time: 0 hr 17 min 48 sec) 

Warmup complete CPU 0 instructions: 50000001 cycles: 18130480 (Simulation time: 0 hr 17 min 48 sec) 

Heartbeat CPU 0 instructions: 60000000 cycles: 38110853 heartbeat IPC: 0.500491 cumulative IPC: 0.500491 (Simulation time: 0 hr 22 min 38 sec) 
Heartbeat CPU 0 instructions: 70000002 cycles: 61840283 heartbeat IPC: 0.421418 cumulative IPC: 0.457563 (Simulation time: 0 hr 26 min 15 sec) 
Heartbeat CPU 0 instructions: 80000001 cycles: 82551178 heartbeat IPC: 0.482838 cumulative IPC: 0.465689 (Simulation time: 0 hr 28 min 40 sec) 
Heartbeat CPU 0 instructions: 90000002 cycles: 100416638 heartbeat IPC: 0.559739 cumulative IPC: 0.486109 (Simulation time: 0 hr 29 min 41 sec) 
Heartbeat CPU 0 instructions: 100000002 cycles: 118195835 heartbeat IPC: 0.562455 cumulative IPC: 0.499673 (Simulation time: 0 hr 30 min 10 sec) 
Finished CPU 0 instructions: 50000001 cycles: 100065355 cumulative IPC: 0.499673 (Simulation time: 0 hr 30 min 10 sec) 

ChampSim completed all CPUs

Region of Interest Statistics

CPU 0 cumulative IPC: 0.499673 instructions: 50000001 cycles: 100065355
L1D TOTAL     ACCESS:   18307442  HIT:   16083744  MISS:    2223698
L1D LOAD      ACCESS:    6977795  HIT:    6222108  MISS:     755687
L1D RFO       ACCESS:    5517812  HIT:    4615894  MISS:     901918
L1D PREFETCH  ACCESS:    5811835  HIT:    5245742  MISS:     566093
L1D WRITEBACK ACCESS:          0  HIT:          0  MISS:          0
L1D PREFETCH  REQUESTED:    7014828  ISSUED:    6830130  USEFUL:     196801  USELESS:     369201
L1D AVERAGE MISS LATENCY: 187.871 cycles
L1I TOTAL     ACCESS:   17410663  HIT:   14569041  MISS:    2841622
L1I LOAD      ACCESS:    9870342  HIT:    9823222  MISS:      47120
L1I RFO       ACCESS:          0  HIT:          0  MISS:          0
L1I PREFETCH  ACCESS:    7540321  HIT:    4745819  MISS:    2794502
L1I WRITEBACK ACCESS:          0  HIT:          0  MISS:          0
L1I PREFETCH  REQUESTED:    8142393  ISSUED:    8110415  USEFUL:    2327812  USELESS:     466633
L1I AVERAGE MISS LATENCY: 18.7231 cycles
L2C TOTAL     ACCESS:    7463073  HIT:    5561940  MISS:    1901133
L2C LOAD      ACCESS:     587536  HIT:     253371  MISS:     334165
L2C RFO       ACCESS:     901458  HIT:      18018  MISS:     883440
L2C PREFETCH  ACCESS:    4799466  HIT:    4118607  MISS:     680859
L2C WRITEBACK ACCESS:    1174613  HIT:    1171944  MISS:       2669
L2C PREFETCH  REQUESTED:    4413016  ISSUED:    4407702  USEFUL:      21275  USELESS:     658098
L2C AVERAGE MISS LATENCY: 224.793 cycles
LLC TOTAL     ACCESS:    4303864  HIT:    2678857  MISS:    1625007
LLC LOAD      ACCESS:     334118  HIT:     166026  MISS:     168092
LLC RFO       ACCESS:     883437  HIT:     114669  MISS:     768768
LLC PREFETCH  ACCESS:    1974141  HIT:    1288347  MISS:     685794
LLC WRITEBACK ACCESS:    1112168  HIT:    1109815  MISS:       2353
LLC PREFETCH  REQUESTED:          0  ISSUED:          0  USEFUL:      53558  USELESS:     631566
LLC AVERAGE MISS LATENCY: 276.74 cycles
Major fault: 0 Minor fault: 25694
CPU 0 L1D next line prefetcher final stats

DRAM Statistics
 CHANNEL 0
 RQ ROW_BUFFER_HIT:     398762  ROW_BUFFER_MISS:    1223617
 DBUS_CONGESTED:    1588421
 WQ ROW_BUFFER_HIT:     267214  ROW_BUFFER_MISS:     672592  FULL:          0

 AVG_CONGESTED_CYCLE: 6

CPU 0 Branch Prediction Accuracy: 99.2186% MPKI: 1.32192 Average ROB Occupancy at Mispredict: 179.311

Branch types
NOT_BRANCH: 41540785 83.0816%
BRANCH_DIRECT_JUMP: 462384 0.924768%
BRANCH_INDIRECT: 45460 0.09092%
BRANCH_CONDITIONAL: 6209281 12.4186%
BRANCH_DIRECT_CALL: 666241 1.33248%
BRANCH_INDIRECT_CALL: 204728 0.409456%
BRANCH_RETURN: 870978 1.74196%
BRANCH_OTHER: 0 0%

