Initialize SIGNATURE TABLE
ST_SET: 1
ST_WAY: 256
ST_TAG_BIT: 16
ST_TAG_MASK: ffff

Initialize PATTERN TABLE
PT_SET: 512
PT_WAY: 4
SIG_DELTA_BIT: 7
C_SIG_BIT: 4
C_DELTA_BIT: 4

Initialize PREFETCH FILTER
FILTER_SET: 1024

*** ChampSim Multicore Out-of-Order Simulator ***

Warmup Instructions: 50000000
Simulation Instructions: 50000000
Number of CPUs: 1
LLC sets: 2048
LLC ways: 16
Off-chip DRAM Size: 4096 MB Channels: 1 Width: 64-bit Data Rate: 3200 MT/s

CPU 0 runs /home/ykhodke/ChampSim/dpc3_traces/server_020.champsimtrace.xz
L1I D-JOLT instruction prefetcher has been constructed!
CPU 0 L1D next line prefetcher
Heartbeat CPU 0 instructions: 10000003 cycles: 3621847 heartbeat IPC: 2.76102 cumulative IPC: 2.76102 (Simulation time: 0 hr 3 min 11 sec) 
Heartbeat CPU 0 instructions: 20000002 cycles: 7248207 heartbeat IPC: 2.75759 cumulative IPC: 2.7593 (Simulation time: 0 hr 6 min 0 sec) 
Heartbeat CPU 0 instructions: 30000001 cycles: 10867764 heartbeat IPC: 2.76277 cumulative IPC: 2.76046 (Simulation time: 0 hr 9 min 11 sec) 
Heartbeat CPU 0 instructions: 40000002 cycles: 14488700 heartbeat IPC: 2.76172 cumulative IPC: 2.76077 (Simulation time: 0 hr 12 min 41 sec) 
Heartbeat CPU 0 instructions: 50000001 cycles: 18122806 heartbeat IPC: 2.75171 cumulative IPC: 2.75895 (Simulation time: 0 hr 15 min 55 sec) 

Warmup complete CPU 0 instructions: 50000001 cycles: 18122806 (Simulation time: 0 hr 15 min 55 sec) 

Heartbeat CPU 0 instructions: 60000003 cycles: 35537890 heartbeat IPC: 0.574215 cumulative IPC: 0.574215 (Simulation time: 0 hr 20 min 0 sec) 
Heartbeat CPU 0 instructions: 70000002 cycles: 52939514 heartbeat IPC: 0.574659 cumulative IPC: 0.574437 (Simulation time: 0 hr 23 min 53 sec) 
Heartbeat CPU 0 instructions: 80000002 cycles: 70318630 heartbeat IPC: 0.575403 cumulative IPC: 0.574759 (Simulation time: 0 hr 27 min 23 sec) 
Heartbeat CPU 0 instructions: 90000001 cycles: 87733579 heartbeat IPC: 0.574219 cumulative IPC: 0.574624 (Simulation time: 0 hr 29 min 21 sec) 
Heartbeat CPU 0 instructions: 100000002 cycles: 105145118 heartbeat IPC: 0.574332 cumulative IPC: 0.574565 (Simulation time: 0 hr 30 min 3 sec) 
Finished CPU 0 instructions: 50000001 cycles: 87022312 cumulative IPC: 0.574565 (Simulation time: 0 hr 30 min 3 sec) 

ChampSim completed all CPUs

Region of Interest Statistics

CPU 0 cumulative IPC: 0.574565 instructions: 50000001 cycles: 87022312
L1D TOTAL     ACCESS:   18633436  HIT:   16429219  MISS:    2204217
L1D LOAD      ACCESS:    7047523  HIT:    6329046  MISS:     718477
L1D RFO       ACCESS:    5804960  HIT:    4858979  MISS:     945981
L1D PREFETCH  ACCESS:    5780953  HIT:    5241194  MISS:     539759
L1D WRITEBACK ACCESS:          0  HIT:          0  MISS:          0
L1D PREFETCH  REQUESTED:    7089270  ISSUED:    6889168  USEFUL:     200491  USELESS:     339187
L1D AVERAGE MISS LATENCY: 177.978 cycles
L1I TOTAL     ACCESS:   18728924  HIT:   15263794  MISS:    3465130
L1I LOAD      ACCESS:   10132336  HIT:   10084703  MISS:      47633
L1I RFO       ACCESS:          0  HIT:          0  MISS:          0
L1I PREFETCH  ACCESS:    8596588  HIT:    5179091  MISS:    3417497
L1I WRITEBACK ACCESS:          0  HIT:          0  MISS:          0
L1I PREFETCH  REQUESTED:    9246714  ISSUED:    9180347  USEFUL:    2718834  USELESS:     698694
L1I AVERAGE MISS LATENCY: 18.2503 cycles
L2C TOTAL     ACCESS:    8338944  HIT:    6478924  MISS:    1860020
L2C LOAD      ACCESS:     535774  HIT:     269892  MISS:     265882
L2C RFO       ACCESS:     945489  HIT:      18504  MISS:     926985
L2C PREFETCH  ACCESS:    5694112  HIT:    5030199  MISS:     663913
L2C WRITEBACK ACCESS:    1163569  HIT:    1160329  MISS:       3240
L2C PREFETCH  REQUESTED:    5122384  ISSUED:    5117873  USEFUL:      21469  USELESS:     641221
L2C AVERAGE MISS LATENCY: 216.958 cycles
LLC TOTAL     ACCESS:    4256982  HIT:    2786345  MISS:    1470637
LLC LOAD      ACCESS:     265788  HIT:     165231  MISS:     100557
LLC RFO       ACCESS:     926980  HIT:     137903  MISS:     789077
LLC PREFETCH  ACCESS:    1963640  HIT:    1384782  MISS:     578858
LLC WRITEBACK ACCESS:    1100574  HIT:    1098429  MISS:       2145
LLC PREFETCH  REQUESTED:          0  ISSUED:          0  USEFUL:      32992  USELESS:     545993
LLC AVERAGE MISS LATENCY: 285.1 cycles
Major fault: 0 Minor fault: 22094
CPU 0 L1D next line prefetcher final stats

DRAM Statistics
 CHANNEL 0
 RQ ROW_BUFFER_HIT:     410767  ROW_BUFFER_MISS:    1057420
 DBUS_CONGESTED:    1465881
 WQ ROW_BUFFER_HIT:     247849  ROW_BUFFER_MISS:     644677  FULL:          0

 AVG_CONGESTED_CYCLE: 6

CPU 0 Branch Prediction Accuracy: 99.712% MPKI: 0.47638 Average ROB Occupancy at Mispredict: 215.221

Branch types
NOT_BRANCH: 41729528 83.4591%
BRANCH_DIRECT_JUMP: 458221 0.916442%
BRANCH_INDIRECT: 49088 0.098176%
BRANCH_CONDITIONAL: 5938533 11.8771%
BRANCH_DIRECT_CALL: 745132 1.49026%
BRANCH_INDIRECT_CALL: 167109 0.334218%
BRANCH_RETURN: 912223 1.82445%
BRANCH_OTHER: 0 0%

