Initialize SIGNATURE TABLE
ST_SET: 1
ST_WAY: 256
ST_TAG_BIT: 16
ST_TAG_MASK: ffff

Initialize PATTERN TABLE
PT_SET: 512
PT_WAY: 4
SIG_DELTA_BIT: 7
C_SIG_BIT: 4
C_DELTA_BIT: 4

Initialize PREFETCH FILTER
FILTER_SET: 1024

*** ChampSim Multicore Out-of-Order Simulator ***

Warmup Instructions: 50000000
Simulation Instructions: 50000000
Number of CPUs: 1
LLC sets: 2048
LLC ways: 16
Off-chip DRAM Size: 4096 MB Channels: 1 Width: 64-bit Data Rate: 3200 MT/s

CPU 0 runs /home/ykhodke/ChampSim/dpc3_traces/server_018.champsimtrace.xz
L1I D-JOLT instruction prefetcher has been constructed!
CPU 0 L1D next line prefetcher
Heartbeat CPU 0 instructions: 10000003 cycles: 3616134 heartbeat IPC: 2.76539 cumulative IPC: 2.76539 (Simulation time: 0 hr 3 min 5 sec) 
Heartbeat CPU 0 instructions: 20000001 cycles: 7237288 heartbeat IPC: 2.76155 cumulative IPC: 2.76347 (Simulation time: 0 hr 6 min 13 sec) 
Heartbeat CPU 0 instructions: 30000003 cycles: 10712398 heartbeat IPC: 2.87761 cumulative IPC: 2.80049 (Simulation time: 0 hr 9 min 11 sec) 
Heartbeat CPU 0 instructions: 40000000 cycles: 14224349 heartbeat IPC: 2.84742 cumulative IPC: 2.81208 (Simulation time: 0 hr 12 min 22 sec) 
Heartbeat CPU 0 instructions: 50000003 cycles: 17841702 heartbeat IPC: 2.76445 cumulative IPC: 2.80242 (Simulation time: 0 hr 15 min 42 sec) 

Warmup complete CPU 0 instructions: 50000003 cycles: 17841702 (Simulation time: 0 hr 15 min 42 sec) 

Heartbeat CPU 0 instructions: 60000000 cycles: 35360165 heartbeat IPC: 0.570826 cumulative IPC: 0.570826 (Simulation time: 0 hr 19 min 47 sec) 
Heartbeat CPU 0 instructions: 70000001 cycles: 52902954 heartbeat IPC: 0.570035 cumulative IPC: 0.57043 (Simulation time: 0 hr 23 min 36 sec) 
Heartbeat CPU 0 instructions: 80000000 cycles: 70340203 heartbeat IPC: 0.573485 cumulative IPC: 0.571445 (Simulation time: 0 hr 27 min 4 sec) 
Heartbeat CPU 0 instructions: 90000002 cycles: 87823536 heartbeat IPC: 0.571973 cumulative IPC: 0.571577 (Simulation time: 0 hr 29 min 33 sec) 
Heartbeat CPU 0 instructions: 100000001 cycles: 105297979 heartbeat IPC: 0.572264 cumulative IPC: 0.571714 (Simulation time: 0 hr 30 min 17 sec) 
Finished CPU 0 instructions: 50000002 cycles: 87456278 cumulative IPC: 0.571714 (Simulation time: 0 hr 30 min 17 sec) 

ChampSim completed all CPUs

Region of Interest Statistics

CPU 0 cumulative IPC: 0.571714 instructions: 50000002 cycles: 87456278
L1D TOTAL     ACCESS:   18616808  HIT:   16399115  MISS:    2217693
L1D LOAD      ACCESS:    7043384  HIT:    6319466  MISS:     723918
L1D RFO       ACCESS:    5805428  HIT:    4853160  MISS:     952268
L1D PREFETCH  ACCESS:    5767996  HIT:    5226489  MISS:     541507
L1D WRITEBACK ACCESS:          0  HIT:          0  MISS:          0
L1D PREFETCH  REQUESTED:    7084570  ISSUED:    6881912  USEFUL:     201717  USELESS:     339879
L1D AVERAGE MISS LATENCY: 178.184 cycles
L1I TOTAL     ACCESS:   18688790  HIT:   15192845  MISS:    3495945
L1I LOAD      ACCESS:   10133289  HIT:   10086240  MISS:      47049
L1I RFO       ACCESS:          0  HIT:          0  MISS:          0
L1I PREFETCH  ACCESS:    8555501  HIT:    5106605  MISS:    3448896
L1I WRITEBACK ACCESS:          0  HIT:          0  MISS:          0
L1I PREFETCH  REQUESTED:    9172647  ISSUED:    9121313  USEFUL:    2736848  USELESS:     711943
L1I AVERAGE MISS LATENCY: 17.6706 cycles
L2C TOTAL     ACCESS:    8378687  HIT:    6516977  MISS:    1861710
L2C LOAD      ACCESS:     541958  HIT:     277491  MISS:     264467
L2C RFO       ACCESS:     951725  HIT:      19359  MISS:     932366
L2C PREFETCH  ACCESS:    5714982  HIT:    5053492  MISS:     661490
L2C WRITEBACK ACCESS:    1170022  HIT:    1166635  MISS:       3387
L2C PREFETCH  REQUESTED:    5049392  ISSUED:    5044094  USEFUL:      21330  USELESS:     641272
L2C AVERAGE MISS LATENCY: 217.035 cycles
LLC TOTAL     ACCESS:    4255283  HIT:    2802507  MISS:    1452776
LLC LOAD      ACCESS:     264433  HIT:     165418  MISS:      99015
LLC RFO       ACCESS:     932357  HIT:     135737  MISS:     796620
LLC PREFETCH  ACCESS:    1955604  HIT:    1400662  MISS:     554942
LLC WRITEBACK ACCESS:    1102889  HIT:    1100690  MISS:       2199
LLC PREFETCH  REQUESTED:          0  ISSUED:          0  USEFUL:      30032  USELESS:     524847
LLC AVERAGE MISS LATENCY: 285.973 cycles
Major fault: 0 Minor fault: 22446
CPU 0 L1D next line prefetcher final stats

DRAM Statistics
 CHANNEL 0
 RQ ROW_BUFFER_HIT:     407068  ROW_BUFFER_MISS:    1043224
 DBUS_CONGESTED:    1458947
 WQ ROW_BUFFER_HIT:     255690  ROW_BUFFER_MISS:     641865  FULL:          0

 AVG_CONGESTED_CYCLE: 6

CPU 0 Branch Prediction Accuracy: 99.7114% MPKI: 0.47678 Average ROB Occupancy at Mispredict: 212.993

Branch types
NOT_BRANCH: 41741008 83.482%
BRANCH_DIRECT_JUMP: 458652 0.917304%
BRANCH_INDIRECT: 48282 0.096564%
BRANCH_CONDITIONAL: 5930881 11.8618%
BRANCH_DIRECT_CALL: 744230 1.48846%
BRANCH_INDIRECT_CALL: 166336 0.332672%
BRANCH_RETURN: 910589 1.82118%
BRANCH_OTHER: 0 0%

