Initialize SIGNATURE TABLE
ST_SET: 1
ST_WAY: 256
ST_TAG_BIT: 16
ST_TAG_MASK: ffff

Initialize PATTERN TABLE
PT_SET: 512
PT_WAY: 4
SIG_DELTA_BIT: 7
C_SIG_BIT: 4
C_DELTA_BIT: 4

Initialize PREFETCH FILTER
FILTER_SET: 1024

*** ChampSim Multicore Out-of-Order Simulator ***

Warmup Instructions: 50000000
Simulation Instructions: 50000000
Number of CPUs: 1
LLC sets: 2048
LLC ways: 16
Off-chip DRAM Size: 4096 MB Channels: 1 Width: 64-bit Data Rate: 3200 MT/s

CPU 0 runs /home/ykhodke/ChampSim/dpc3_traces/server_034.champsimtrace.xz
LHT KB: 126.25
SCC KB: 1.56
Total KB: 127.81
CPU 0 L1D next line prefetcher
Heartbeat CPU 0 instructions: 10000000 cycles: 3330261 heartbeat IPC: 3.00277 cumulative IPC: 3.00277 (Simulation time: 0 hr 3 min 21 sec) 
Heartbeat CPU 0 instructions: 20000002 cycles: 6653706 heartbeat IPC: 3.00893 cumulative IPC: 3.00584 (Simulation time: 0 hr 7 min 0 sec) 
Heartbeat CPU 0 instructions: 30000003 cycles: 9985453 heartbeat IPC: 3.00143 cumulative IPC: 3.00437 (Simulation time: 0 hr 10 min 43 sec) 
Heartbeat CPU 0 instructions: 40000001 cycles: 13315124 heartbeat IPC: 3.0033 cumulative IPC: 3.0041 (Simulation time: 0 hr 13 min 50 sec) 
Heartbeat CPU 0 instructions: 50000000 cycles: 16643829 heartbeat IPC: 3.00417 cumulative IPC: 3.00412 (Simulation time: 0 hr 16 min 45 sec) 

Warmup complete CPU 0 instructions: 50000002 cycles: 16643830 (Simulation time: 0 hr 16 min 45 sec) 

Heartbeat CPU 0 instructions: 60000002 cycles: 22641701 heartbeat IPC: 1.66726 cumulative IPC: 1.66726 (Simulation time: 0 hr 19 min 51 sec) 
Heartbeat CPU 0 instructions: 70000003 cycles: 28961573 heartbeat IPC: 1.58231 cumulative IPC: 1.62367 (Simulation time: 0 hr 22 min 58 sec) 
Heartbeat CPU 0 instructions: 80000002 cycles: 35058623 heartbeat IPC: 1.64014 cumulative IPC: 1.62912 (Simulation time: 0 hr 26 min 4 sec) 
Heartbeat CPU 0 instructions: 90000002 cycles: 41149823 heartbeat IPC: 1.64171 cumulative IPC: 1.63225 (Simulation time: 0 hr 28 min 28 sec) 
Heartbeat CPU 0 instructions: 100000002 cycles: 47186318 heartbeat IPC: 1.65659 cumulative IPC: 1.63706 (Simulation time: 0 hr 29 min 49 sec) 
Finished CPU 0 instructions: 50000000 cycles: 30542488 cumulative IPC: 1.63706 (Simulation time: 0 hr 29 min 49 sec) 

ChampSim completed all CPUs

Region of Interest Statistics

CPU 0 cumulative IPC: 1.63706 instructions: 50000000 cycles: 30542488
L1D TOTAL     ACCESS:   18344828  HIT:   16920640  MISS:    1424188
L1D LOAD      ACCESS:    6181313  HIT:    5525542  MISS:     655771
L1D RFO       ACCESS:    6163460  HIT:    6020621  MISS:     142839
L1D PREFETCH  ACCESS:    6000055  HIT:    5374477  MISS:     625578
L1D WRITEBACK ACCESS:          0  HIT:          0  MISS:          0
L1D PREFETCH  REQUESTED:    6217325  ISSUED:    6129566  USEFUL:     141077  USELESS:     484470
L1D AVERAGE MISS LATENCY: 17.5982 cycles
L1I TOTAL     ACCESS:   26022443  HIT:   20399709  MISS:    5622734
L1I LOAD      ACCESS:    9603950  HIT:    9131819  MISS:     472131
L1I RFO       ACCESS:          0  HIT:          0  MISS:          0
L1I PREFETCH  ACCESS:   16418493  HIT:   11267890  MISS:    5150603
L1I WRITEBACK ACCESS:          0  HIT:          0  MISS:          0
L1I PREFETCH  REQUESTED:   18860703  ISSUED:   18860701  USEFUL:    3030611  USELESS:    2119938
L1I AVERAGE MISS LATENCY: 13.7594 cycles
L2C TOTAL     ACCESS:    9352647  HIT:    9236340  MISS:     116307
L2C LOAD      ACCESS:     750075  HIT:     707660  MISS:      42415
L2C RFO       ACCESS:     140952  HIT:     133303  MISS:       7649
L2C PREFETCH  ACCESS:    8110891  HIT:    8046528  MISS:      64363
L2C WRITEBACK ACCESS:     350729  HIT:     348849  MISS:       1880
L2C PREFETCH  REQUESTED:    5440396  ISSUED:    5437248  USEFUL:       3756  USELESS:      59677
L2C AVERAGE MISS LATENCY: 36.8184 cycles
LLC TOTAL     ACCESS:    1529234  HIT:    1519021  MISS:      10213
LLC LOAD      ACCESS:      42348  HIT:      40202  MISS:       2146
LLC RFO       ACCESS:       7649  HIT:       7447  MISS:        202
LLC PREFETCH  ACCESS:    1439501  HIT:    1431651  MISS:       7850
LLC WRITEBACK ACCESS:      39736  HIT:      39721  MISS:         15
LLC PREFETCH  REQUESTED:          0  ISSUED:          0  USEFUL:       2629  USELESS:       3018
LLC AVERAGE MISS LATENCY: 141.843 cycles
Major fault: 0 Minor fault: 1181
CPU 0 L1D next line prefetcher final stats

DRAM Statistics
 CHANNEL 0
 RQ ROW_BUFFER_HIT:       3664  ROW_BUFFER_MISS:       6527
 DBUS_CONGESTED:       4241
 WQ ROW_BUFFER_HIT:        567  ROW_BUFFER_MISS:       1919  FULL:          0

 AVG_CONGESTED_CYCLE: 5

CPU 0 Branch Prediction Accuracy: 99.926% MPKI: 0.14472 Average ROB Occupancy at Mispredict: 229.046

Branch types
NOT_BRANCH: 40220972 80.4419%
BRANCH_DIRECT_JUMP: 771319 1.54264%
BRANCH_INDIRECT: 108663 0.217326%
BRANCH_CONDITIONAL: 6375035 12.7501%
BRANCH_DIRECT_CALL: 1049635 2.09927%
BRANCH_INDIRECT_CALL: 212281 0.424562%
BRANCH_RETURN: 1261924 2.52385%
BRANCH_OTHER: 0 0%

