Initialize SIGNATURE TABLE
ST_SET: 1
ST_WAY: 256
ST_TAG_BIT: 16
ST_TAG_MASK: ffff

Initialize PATTERN TABLE
PT_SET: 512
PT_WAY: 4
SIG_DELTA_BIT: 7
C_SIG_BIT: 4
C_DELTA_BIT: 4

Initialize PREFETCH FILTER
FILTER_SET: 1024

*** ChampSim Multicore Out-of-Order Simulator ***

Warmup Instructions: 50000000
Simulation Instructions: 50000000
Number of CPUs: 1
LLC sets: 2048
LLC ways: 16
Off-chip DRAM Size: 4096 MB Channels: 1 Width: 64-bit Data Rate: 3200 MT/s

CPU 0 runs /home/ykhodke/ChampSim/dpc3_traces/server_027.champsimtrace.xz
L1I D-JOLT instruction prefetcher has been constructed!
CPU 0 L1D next line prefetcher
Heartbeat CPU 0 instructions: 10000001 cycles: 3522703 heartbeat IPC: 2.83873 cumulative IPC: 2.83873 (Simulation time: 0 hr 3 min 8 sec) 
Heartbeat CPU 0 instructions: 20000001 cycles: 7049951 heartbeat IPC: 2.83507 cumulative IPC: 2.8369 (Simulation time: 0 hr 6 min 12 sec) 
Heartbeat CPU 0 instructions: 30000002 cycles: 10571677 heartbeat IPC: 2.83952 cumulative IPC: 2.83777 (Simulation time: 0 hr 9 min 47 sec) 
Heartbeat CPU 0 instructions: 40000000 cycles: 14099508 heartbeat IPC: 2.8346 cumulative IPC: 2.83698 (Simulation time: 0 hr 13 min 9 sec) 
Heartbeat CPU 0 instructions: 50000001 cycles: 17621690 heartbeat IPC: 2.83915 cumulative IPC: 2.83741 (Simulation time: 0 hr 16 min 34 sec) 

Warmup complete CPU 0 instructions: 50000001 cycles: 17621690 (Simulation time: 0 hr 16 min 34 sec) 

Heartbeat CPU 0 instructions: 60000002 cycles: 24483690 heartbeat IPC: 1.4573 cumulative IPC: 1.4573 (Simulation time: 0 hr 19 min 36 sec) 
Heartbeat CPU 0 instructions: 70000003 cycles: 31288109 heartbeat IPC: 1.46963 cumulative IPC: 1.46344 (Simulation time: 0 hr 22 min 32 sec) 
Heartbeat CPU 0 instructions: 80000002 cycles: 38107548 heartbeat IPC: 1.4664 cumulative IPC: 1.46442 (Simulation time: 0 hr 25 min 17 sec) 
Heartbeat CPU 0 instructions: 90000001 cycles: 45010764 heartbeat IPC: 1.4486 cumulative IPC: 1.46044 (Simulation time: 0 hr 27 min 25 sec) 
Heartbeat CPU 0 instructions: 100000002 cycles: 51788523 heartbeat IPC: 1.47541 cumulative IPC: 1.46341 (Simulation time: 0 hr 28 min 28 sec) 
Finished CPU 0 instructions: 50000001 cycles: 34166833 cumulative IPC: 1.46341 (Simulation time: 0 hr 28 min 28 sec) 

ChampSim completed all CPUs

Region of Interest Statistics

CPU 0 cumulative IPC: 1.46341 instructions: 50000001 cycles: 34166833
L1D TOTAL     ACCESS:   19877552  HIT:   18275831  MISS:    1601721
L1D LOAD      ACCESS:    6940100  HIT:    6247448  MISS:     692652
L1D RFO       ACCESS:    6286639  HIT:    6001580  MISS:     285059
L1D PREFETCH  ACCESS:    6650813  HIT:    6026803  MISS:     624010
L1D WRITEBACK ACCESS:          0  HIT:          0  MISS:          0
L1D PREFETCH  REQUESTED:    6984699  ISSUED:    6857026  USEFUL:     149028  USELESS:     474992
L1D AVERAGE MISS LATENCY: 24.0027 cycles
L1I TOTAL     ACCESS:   14269869  HIT:   11134467  MISS:    3135402
L1I LOAD      ACCESS:    9464641  HIT:    9413111  MISS:      51530
L1I RFO       ACCESS:          0  HIT:          0  MISS:          0
L1I PREFETCH  ACCESS:    4805228  HIT:    1721356  MISS:    3083872
L1I WRITEBACK ACCESS:          0  HIT:          0  MISS:          0
L1I PREFETCH  REQUESTED:    5012726  ISSUED:    4985413  USEFUL:    2738866  USELESS:     345054
L1I AVERAGE MISS LATENCY: 20.1 cycles
L2C TOTAL     ACCESS:    6600714  HIT:    5688719  MISS:     911995
L2C LOAD      ACCESS:     684763  HIT:     543159  MISS:     141604
L2C RFO       ACCESS:     283577  HIT:     193852  MISS:      89725
L2C PREFETCH  ACCESS:    5073169  HIT:    4397616  MISS:     675553
L2C WRITEBACK ACCESS:     559205  HIT:     554092  MISS:       5113
L2C PREFETCH  REQUESTED:    4234394  ISSUED:    4229367  USEFUL:      13720  USELESS:     661884
L2C AVERAGE MISS LATENCY: 37.0134 cycles
LLC TOTAL     ACCESS:    2247562  HIT:    2212681  MISS:      34881
LLC LOAD      ACCESS:     141381  HIT:     137765  MISS:       3616
LLC RFO       ACCESS:      89721  HIT:      75758  MISS:      13963
LLC PREFETCH  ACCESS:    1857656  HIT:    1840545  MISS:      17111
LLC WRITEBACK ACCESS:     158804  HIT:     158613  MISS:        191
LLC PREFETCH  REQUESTED:          0  ISSUED:          0  USEFUL:       1407  USELESS:      15462
LLC AVERAGE MISS LATENCY: 182.504 cycles
Major fault: 0 Minor fault: 2485
CPU 0 L1D next line prefetcher final stats

DRAM Statistics
 CHANNEL 0
 RQ ROW_BUFFER_HIT:      11165  ROW_BUFFER_MISS:      23521
 DBUS_CONGESTED:      22414
 WQ ROW_BUFFER_HIT:       1592  ROW_BUFFER_MISS:      14602  FULL:          0

 AVG_CONGESTED_CYCLE: 6

CPU 0 Branch Prediction Accuracy: 99.8082% MPKI: 0.35064 Average ROB Occupancy at Mispredict: 193.026

Branch types
NOT_BRANCH: 40857515 81.715%
BRANCH_DIRECT_JUMP: 526635 1.05327%
BRANCH_INDIRECT: 205902 0.411804%
BRANCH_CONDITIONAL: 6184050 12.3681%
BRANCH_DIRECT_CALL: 938468 1.87694%
BRANCH_INDIRECT_CALL: 174486 0.348972%
BRANCH_RETURN: 1112960 2.22592%
BRANCH_OTHER: 0 0%

