Initialize SIGNATURE TABLE
ST_SET: 1
ST_WAY: 256
ST_TAG_BIT: 16
ST_TAG_MASK: ffff

Initialize PATTERN TABLE
PT_SET: 512
PT_WAY: 4
SIG_DELTA_BIT: 7
C_SIG_BIT: 4
C_DELTA_BIT: 4

Initialize PREFETCH FILTER
FILTER_SET: 1024

*** ChampSim Multicore Out-of-Order Simulator ***

Warmup Instructions: 50000000
Simulation Instructions: 50000000
Number of CPUs: 1
LLC sets: 2048
LLC ways: 16
Off-chip DRAM Size: 4096 MB Channels: 1 Width: 64-bit Data Rate: 3200 MT/s

CPU 0 runs /home/ykhodke/ChampSim/dpc3_traces/server_023.champsimtrace.xz
LHT KB: 126.25
SCC KB: 1.56
Total KB: 127.81
CPU 0 L1D next line prefetcher
Heartbeat CPU 0 instructions: 10000000 cycles: 3502678 heartbeat IPC: 2.85496 cumulative IPC: 2.85496 (Simulation time: 0 hr 3 min 15 sec) 
Heartbeat CPU 0 instructions: 20000000 cycles: 7004630 heartbeat IPC: 2.85555 cumulative IPC: 2.85525 (Simulation time: 0 hr 6 min 21 sec) 
Heartbeat CPU 0 instructions: 30000001 cycles: 10500101 heartbeat IPC: 2.86085 cumulative IPC: 2.85712 (Simulation time: 0 hr 9 min 25 sec) 
Heartbeat CPU 0 instructions: 40000003 cycles: 14001921 heartbeat IPC: 2.85566 cumulative IPC: 2.85675 (Simulation time: 0 hr 12 min 37 sec) 
Heartbeat CPU 0 instructions: 50000001 cycles: 17505146 heartbeat IPC: 2.85451 cumulative IPC: 2.8563 (Simulation time: 0 hr 15 min 41 sec) 

Warmup complete CPU 0 instructions: 50000001 cycles: 17505146 (Simulation time: 0 hr 15 min 41 sec) 

Heartbeat CPU 0 instructions: 60000002 cycles: 24382386 heartbeat IPC: 1.45407 cumulative IPC: 1.45407 (Simulation time: 0 hr 18 min 54 sec) 
Heartbeat CPU 0 instructions: 70000002 cycles: 31470582 heartbeat IPC: 1.4108 cumulative IPC: 1.43211 (Simulation time: 0 hr 22 min 4 sec) 
Heartbeat CPU 0 instructions: 80000000 cycles: 38470445 heartbeat IPC: 1.4286 cumulative IPC: 1.43094 (Simulation time: 0 hr 25 min 8 sec) 
Heartbeat CPU 0 instructions: 90000000 cycles: 45485471 heartbeat IPC: 1.42551 cumulative IPC: 1.42958 (Simulation time: 0 hr 27 min 31 sec) 
Heartbeat CPU 0 instructions: 100000001 cycles: 52469700 heartbeat IPC: 1.4318 cumulative IPC: 1.43002 (Simulation time: 0 hr 29 min 21 sec) 
Finished CPU 0 instructions: 50000000 cycles: 34964554 cumulative IPC: 1.43002 (Simulation time: 0 hr 29 min 21 sec) 

ChampSim completed all CPUs

Region of Interest Statistics

CPU 0 cumulative IPC: 1.43002 instructions: 50000000 cycles: 34964554
L1D TOTAL     ACCESS:   19507809  HIT:   18040875  MISS:    1466934
L1D LOAD      ACCESS:    6921316  HIT:    6259623  MISS:     661693
L1D RFO       ACCESS:    5986945  HIT:    5725896  MISS:     261049
L1D PREFETCH  ACCESS:    6599548  HIT:    6055356  MISS:     544192
L1D WRITEBACK ACCESS:          0  HIT:          0  MISS:          0
L1D PREFETCH  REQUESTED:    6971870  ISSUED:    6854665  USEFUL:     129380  USELESS:     414821
L1D AVERAGE MISS LATENCY: 24.8499 cycles
L1I TOTAL     ACCESS:   24612256  HIT:   19486876  MISS:    5125380
L1I LOAD      ACCESS:    9354551  HIT:    8899110  MISS:     455441
L1I RFO       ACCESS:          0  HIT:          0  MISS:          0
L1I PREFETCH  ACCESS:   15257705  HIT:   10587766  MISS:    4669939
L1I WRITEBACK ACCESS:          0  HIT:          0  MISS:          0
L1I PREFETCH  REQUESTED:   17864079  ISSUED:   17864079  USEFUL:    2165404  USELESS:    2504500
L1I AVERAGE MISS LATENCY: 15.5449 cycles
L2C TOTAL     ACCESS:    8849639  HIT:    8151911  MISS:     697728
L2C LOAD      ACCESS:     697205  HIT:     561218  MISS:     135987
L2C RFO       ACCESS:     259420  HIT:     181706  MISS:      77714
L2C PREFETCH  ACCESS:    7393813  HIT:    6918099  MISS:     475714
L2C WRITEBACK ACCESS:     499201  HIT:     490888  MISS:       8313
L2C PREFETCH  REQUESTED:    4902960  ISSUED:    4898185  USEFUL:      22951  USELESS:     452010
L2C AVERAGE MISS LATENCY: 41.3162 cycles
LLC TOTAL     ACCESS:    2149361  HIT:    2100225  MISS:      49136
LLC LOAD      ACCESS:     135840  HIT:     130352  MISS:       5488
LLC RFO       ACCESS:      77709  HIT:      59747  MISS:      17962
LLC PREFETCH  ACCESS:    1796278  HIT:    1770850  MISS:      25428
LLC WRITEBACK ACCESS:     139534  HIT:     139276  MISS:        258
LLC PREFETCH  REQUESTED:          0  ISSUED:          0  USEFUL:       1736  USELESS:      23142
LLC AVERAGE MISS LATENCY: 189.603 cycles
Major fault: 0 Minor fault: 2783
CPU 0 L1D next line prefetcher final stats

DRAM Statistics
 CHANNEL 0
 RQ ROW_BUFFER_HIT:      15098  ROW_BUFFER_MISS:      33777
 DBUS_CONGESTED:      32546
 WQ ROW_BUFFER_HIT:       2282  ROW_BUFFER_MISS:      19416  FULL:          0

 AVG_CONGESTED_CYCLE: 6

CPU 0 Branch Prediction Accuracy: 99.6798% MPKI: 0.58608 Average ROB Occupancy at Mispredict: 137.05

Branch types
NOT_BRANCH: 40848360 81.6967%
BRANCH_DIRECT_JUMP: 548373 1.09675%
BRANCH_INDIRECT: 189802 0.379604%
BRANCH_CONDITIONAL: 6372773 12.7455%
BRANCH_DIRECT_CALL: 862207 1.72441%
BRANCH_INDIRECT_CALL: 158149 0.316298%
BRANCH_RETURN: 1020345 2.04069%
BRANCH_OTHER: 0 0%

