Initialize SIGNATURE TABLE
ST_SET: 1
ST_WAY: 256
ST_TAG_BIT: 16
ST_TAG_MASK: ffff

Initialize PATTERN TABLE
PT_SET: 512
PT_WAY: 4
SIG_DELTA_BIT: 7
C_SIG_BIT: 4
C_DELTA_BIT: 4

Initialize PREFETCH FILTER
FILTER_SET: 1024

*** ChampSim Multicore Out-of-Order Simulator ***

Warmup Instructions: 50000000
Simulation Instructions: 50000000
Number of CPUs: 1
LLC sets: 2048
LLC ways: 16
Off-chip DRAM Size: 4096 MB Channels: 1 Width: 64-bit Data Rate: 3200 MT/s

CPU 0 runs /home/ykhodke/ChampSim/dpc3_traces/server_026.champsimtrace.xz
L1I D-JOLT instruction prefetcher has been constructed!
CPU 0 L1D next line prefetcher
Heartbeat CPU 0 instructions: 10000000 cycles: 3524132 heartbeat IPC: 2.83758 cumulative IPC: 2.83758 (Simulation time: 0 hr 3 min 54 sec) 
Heartbeat CPU 0 instructions: 20000002 cycles: 7054066 heartbeat IPC: 2.83291 cumulative IPC: 2.83524 (Simulation time: 0 hr 7 min 52 sec) 
Heartbeat CPU 0 instructions: 30000000 cycles: 10573753 heartbeat IPC: 2.84116 cumulative IPC: 2.83721 (Simulation time: 0 hr 11 min 45 sec) 
Heartbeat CPU 0 instructions: 40000003 cycles: 14102719 heartbeat IPC: 2.83369 cumulative IPC: 2.83633 (Simulation time: 0 hr 15 min 33 sec) 
Heartbeat CPU 0 instructions: 50000000 cycles: 17624146 heartbeat IPC: 2.83976 cumulative IPC: 2.83702 (Simulation time: 0 hr 18 min 46 sec) 

Warmup complete CPU 0 instructions: 50000004 cycles: 17624147 (Simulation time: 0 hr 18 min 46 sec) 

*** Reached end of trace for Core: 0 Repeating trace: /home/ykhodke/ChampSim/dpc3_traces/server_026.champsimtrace.xz
Heartbeat CPU 0 instructions: 60000000 cycles: 24538668 heartbeat IPC: 1.44623 cumulative IPC: 1.44623 (Simulation time: 0 hr 21 min 55 sec) 
Heartbeat CPU 0 instructions: 70000003 cycles: 31341745 heartbeat IPC: 1.46992 cumulative IPC: 1.45798 (Simulation time: 0 hr 24 min 51 sec) 
Heartbeat CPU 0 instructions: 80000002 cycles: 38236358 heartbeat IPC: 1.45041 cumulative IPC: 1.45545 (Simulation time: 0 hr 27 min 24 sec) 
Heartbeat CPU 0 instructions: 90000002 cycles: 45034652 heartbeat IPC: 1.47096 cumulative IPC: 1.45929 (Simulation time: 0 hr 29 min 10 sec) 
Heartbeat CPU 0 instructions: 100000000 cycles: 51905205 heartbeat IPC: 1.45549 cumulative IPC: 1.45853 (Simulation time: 0 hr 29 min 50 sec) 
Finished CPU 0 instructions: 50000000 cycles: 34281059 cumulative IPC: 1.45853 (Simulation time: 0 hr 29 min 50 sec) 

ChampSim completed all CPUs

Region of Interest Statistics

CPU 0 cumulative IPC: 1.45853 instructions: 50000000 cycles: 34281059
L1D TOTAL     ACCESS:   19758011  HIT:   18113048  MISS:    1644963
L1D LOAD      ACCESS:    6926521  HIT:    6197632  MISS:     728889
L1D RFO       ACCESS:    6240839  HIT:    5954624  MISS:     286215
L1D PREFETCH  ACCESS:    6590651  HIT:    5960792  MISS:     629859
L1D WRITEBACK ACCESS:          0  HIT:          0  MISS:          0
L1D PREFETCH  REQUESTED:    6974027  ISSUED:    6831644  USEFUL:     152172  USELESS:     477697
L1D AVERAGE MISS LATENCY: 24.3741 cycles
L1I TOTAL     ACCESS:   15652362  HIT:   12507980  MISS:    3144382
L1I LOAD      ACCESS:    9501096  HIT:    9459029  MISS:      42067
L1I RFO       ACCESS:          0  HIT:          0  MISS:          0
L1I PREFETCH  ACCESS:    6151266  HIT:    3048951  MISS:    3102315
L1I WRITEBACK ACCESS:          0  HIT:          0  MISS:          0
L1I PREFETCH  REQUESTED:    6512476  ISSUED:    6449713  USEFUL:    2741904  USELESS:     360393
L1I AVERAGE MISS LATENCY: 20.046 cycles
L2C TOTAL     ACCESS:    6651381  HIT:    5727760  MISS:     923621
L2C LOAD      ACCESS:     718722  HIT:     566868  MISS:     151854
L2C RFO       ACCESS:     284543  HIT:     182788  MISS:     101755
L2C PREFETCH  ACCESS:    5086928  HIT:    4421753  MISS:     665175
L2C WRITEBACK ACCESS:     561188  HIT:     556351  MISS:       4837
L2C PREFETCH  REQUESTED:    4620943  ISSUED:    4614322  USEFUL:      11749  USELESS:     653225
L2C AVERAGE MISS LATENCY: 37.3458 cycles
LLC TOTAL     ACCESS:    2409922  HIT:    2374159  MISS:      35763
LLC LOAD      ACCESS:     151593  HIT:     148017  MISS:       3576
LLC RFO       ACCESS:     101751  HIT:      87263  MISS:      14488
LLC PREFETCH  ACCESS:    1984171  HIT:    1966656  MISS:      17515
LLC WRITEBACK ACCESS:     172407  HIT:     172223  MISS:        184
LLC PREFETCH  REQUESTED:          0  ISSUED:          0  USEFUL:       1027  USELESS:      16706
LLC AVERAGE MISS LATENCY: 186.727 cycles
Major fault: 0 Minor fault: 2174
CPU 0 L1D next line prefetcher final stats

DRAM Statistics
 CHANNEL 0
 RQ ROW_BUFFER_HIT:      12609  ROW_BUFFER_MISS:      22963
 DBUS_CONGESTED:      23395
 WQ ROW_BUFFER_HIT:       1401  ROW_BUFFER_MISS:      14272  FULL:          0

 AVG_CONGESTED_CYCLE: 6

CPU 0 Branch Prediction Accuracy: 99.822% MPKI: 0.32584 Average ROB Occupancy at Mispredict: 204.612

Branch types
NOT_BRANCH: 40848584 81.6972%
BRANCH_DIRECT_JUMP: 522045 1.04409%
BRANCH_INDIRECT: 204034 0.408068%
BRANCH_CONDITIONAL: 6212963 12.4259%
BRANCH_DIRECT_CALL: 932393 1.86479%
BRANCH_INDIRECT_CALL: 173764 0.347528%
BRANCH_RETURN: 1106152 2.2123%
BRANCH_OTHER: 0 0%

