Initialize SIGNATURE TABLE
ST_SET: 1
ST_WAY: 256
ST_TAG_BIT: 16
ST_TAG_MASK: ffff

Initialize PATTERN TABLE
PT_SET: 512
PT_WAY: 4
SIG_DELTA_BIT: 7
C_SIG_BIT: 4
C_DELTA_BIT: 4

Initialize PREFETCH FILTER
FILTER_SET: 1024

*** ChampSim Multicore Out-of-Order Simulator ***

Warmup Instructions: 50000000
Simulation Instructions: 50000000
Number of CPUs: 1
LLC sets: 2048
LLC ways: 16
Off-chip DRAM Size: 4096 MB Channels: 1 Width: 64-bit Data Rate: 3200 MT/s

CPU 0 runs /home/ykhodke/ChampSim/dpc3_traces/server_019.champsimtrace.xz
L1I D-JOLT instruction prefetcher has been constructed!
CPU 0 L1D next line prefetcher
Heartbeat CPU 0 instructions: 10000002 cycles: 3622760 heartbeat IPC: 2.76033 cumulative IPC: 2.76033 (Simulation time: 0 hr 3 min 31 sec) 
Heartbeat CPU 0 instructions: 20000003 cycles: 7247044 heartbeat IPC: 2.75917 cumulative IPC: 2.75975 (Simulation time: 0 hr 6 min 29 sec) 
Heartbeat CPU 0 instructions: 30000002 cycles: 10870361 heartbeat IPC: 2.7599 cumulative IPC: 2.7598 (Simulation time: 0 hr 9 min 30 sec) 
Heartbeat CPU 0 instructions: 40000002 cycles: 14505689 heartbeat IPC: 2.75078 cumulative IPC: 2.75754 (Simulation time: 0 hr 12 min 56 sec) 
Heartbeat CPU 0 instructions: 50000001 cycles: 18129411 heartbeat IPC: 2.75959 cumulative IPC: 2.75795 (Simulation time: 0 hr 16 min 10 sec) 

Warmup complete CPU 0 instructions: 50000001 cycles: 18129411 (Simulation time: 0 hr 16 min 10 sec) 

Heartbeat CPU 0 instructions: 60000000 cycles: 37913986 heartbeat IPC: 0.505444 cumulative IPC: 0.505444 (Simulation time: 0 hr 21 min 1 sec) 
Heartbeat CPU 0 instructions: 70000002 cycles: 61433772 heartbeat IPC: 0.425174 cumulative IPC: 0.461847 (Simulation time: 0 hr 25 min 9 sec) 
Heartbeat CPU 0 instructions: 80000001 cycles: 81933229 heartbeat IPC: 0.487818 cumulative IPC: 0.470191 (Simulation time: 0 hr 28 min 11 sec) 
Heartbeat CPU 0 instructions: 90000002 cycles: 99463197 heartbeat IPC: 0.570452 cumulative IPC: 0.491801 (Simulation time: 0 hr 29 min 41 sec) 
Heartbeat CPU 0 instructions: 100000002 cycles: 116987703 heartbeat IPC: 0.570629 cumulative IPC: 0.505774 (Simulation time: 0 hr 30 min 13 sec) 
Finished CPU 0 instructions: 50000001 cycles: 98858292 cumulative IPC: 0.505774 (Simulation time: 0 hr 30 min 13 sec) 

ChampSim completed all CPUs

Region of Interest Statistics

CPU 0 cumulative IPC: 0.505774 instructions: 50000001 cycles: 98858292
L1D TOTAL     ACCESS:   18297409  HIT:   16073864  MISS:    2223545
L1D LOAD      ACCESS:    6975253  HIT:    6224119  MISS:     751134
L1D RFO       ACCESS:    5509557  HIT:    4607648  MISS:     901909
L1D PREFETCH  ACCESS:    5812599  HIT:    5242097  MISS:     570502
L1D WRITEBACK ACCESS:          0  HIT:          0  MISS:          0
L1D PREFETCH  REQUESTED:    7012291  ISSUED:    6827824  USEFUL:     201253  USELESS:     369157
L1D AVERAGE MISS LATENCY: 189.383 cycles
L1I TOTAL     ACCESS:   17917977  HIT:   14680400  MISS:    3237577
L1I LOAD      ACCESS:    9887126  HIT:    9843231  MISS:      43895
L1I RFO       ACCESS:          0  HIT:          0  MISS:          0
L1I PREFETCH  ACCESS:    8030851  HIT:    4837169  MISS:    3193682
L1I WRITEBACK ACCESS:          0  HIT:          0  MISS:          0
L1I PREFETCH  REQUESTED:    8665488  ISSUED:    8603821  USEFUL:    2454848  USELESS:     738769
L1I AVERAGE MISS LATENCY: 18.8316 cycles
L2C TOTAL     ACCESS:    8067419  HIT:    6170641  MISS:    1896778
L2C LOAD      ACCESS:     588493  HIT:     253140  MISS:     335353
L2C RFO       ACCESS:     901431  HIT:      17782  MISS:     883649
L2C PREFETCH  ACCESS:    5402901  HIT:    4727815  MISS:     675086
L2C WRITEBACK ACCESS:    1174594  HIT:    1171904  MISS:       2690
L2C PREFETCH  REQUESTED:    5024209  ISSUED:    5018772  USEFUL:      21682  USELESS:     651889
L2C AVERAGE MISS LATENCY: 226.062 cycles
LLC TOTAL     ACCESS:    4380107  HIT:    2759498  MISS:    1620609
LLC LOAD      ACCESS:     335233  HIT:     167681  MISS:     167552
LLC RFO       ACCESS:     883647  HIT:     115151  MISS:     768496
LLC PREFETCH  ACCESS:    2048237  HIT:    1365929  MISS:     682308
LLC WRITEBACK ACCESS:    1112990  HIT:    1110737  MISS:       2253
LLC PREFETCH  REQUESTED:          0  ISSUED:          0  USEFUL:      54218  USELESS:     627154
LLC AVERAGE MISS LATENCY: 281.822 cycles
Major fault: 0 Minor fault: 25694
CPU 0 L1D next line prefetcher final stats

DRAM Statistics
 CHANNEL 0
 RQ ROW_BUFFER_HIT:     396828  ROW_BUFFER_MISS:    1221242
 DBUS_CONGESTED:    1595478
 WQ ROW_BUFFER_HIT:     258137  ROW_BUFFER_MISS:     681810  FULL:          0

 AVG_CONGESTED_CYCLE: 6

CPU 0 Branch Prediction Accuracy: 99.2186% MPKI: 1.32192 Average ROB Occupancy at Mispredict: 179.557

Branch types
NOT_BRANCH: 41540785 83.0816%
BRANCH_DIRECT_JUMP: 462384 0.924768%
BRANCH_INDIRECT: 45460 0.09092%
BRANCH_CONDITIONAL: 6209281 12.4186%
BRANCH_DIRECT_CALL: 666241 1.33248%
BRANCH_INDIRECT_CALL: 204728 0.409456%
BRANCH_RETURN: 870978 1.74196%
BRANCH_OTHER: 0 0%

