Initialize SIGNATURE TABLE
ST_SET: 1
ST_WAY: 256
ST_TAG_BIT: 16
ST_TAG_MASK: ffff

Initialize PATTERN TABLE
PT_SET: 512
PT_WAY: 4
SIG_DELTA_BIT: 7
C_SIG_BIT: 4
C_DELTA_BIT: 4

Initialize PREFETCH FILTER
FILTER_SET: 1024

*** ChampSim Multicore Out-of-Order Simulator ***

Warmup Instructions: 50000000
Simulation Instructions: 50000000
Number of CPUs: 1
LLC sets: 2048
LLC ways: 16
Off-chip DRAM Size: 4096 MB Channels: 1 Width: 64-bit Data Rate: 3200 MT/s

CPU 0 runs /home/ykhodke/ChampSim/dpc3_traces/server_009.champsimtrace.xz
L1I D-JOLT instruction prefetcher has been constructed!
CPU 0 L1D next line prefetcher
Heartbeat CPU 0 instructions: 10000003 cycles: 3196634 heartbeat IPC: 3.12829 cumulative IPC: 3.12829 (Simulation time: 0 hr 3 min 16 sec) 
Heartbeat CPU 0 instructions: 20000001 cycles: 6386955 heartbeat IPC: 3.13448 cumulative IPC: 3.13138 (Simulation time: 0 hr 6 min 25 sec) 
Heartbeat CPU 0 instructions: 30000002 cycles: 9592167 heartbeat IPC: 3.11992 cumulative IPC: 3.12755 (Simulation time: 0 hr 9 min 36 sec) 
Heartbeat CPU 0 instructions: 40000003 cycles: 12793403 heartbeat IPC: 3.12379 cumulative IPC: 3.12661 (Simulation time: 0 hr 12 min 38 sec) 
Heartbeat CPU 0 instructions: 50000000 cycles: 16051467 heartbeat IPC: 3.06931 cumulative IPC: 3.11498 (Simulation time: 0 hr 16 min 3 sec) 

Warmup complete CPU 0 instructions: 50000004 cycles: 16051468 (Simulation time: 0 hr 16 min 3 sec) 

Heartbeat CPU 0 instructions: 60000002 cycles: 31730510 heartbeat IPC: 0.637794 cumulative IPC: 0.637794 (Simulation time: 0 hr 20 min 10 sec) 
Heartbeat CPU 0 instructions: 70000003 cycles: 52807711 heartbeat IPC: 0.474446 cumulative IPC: 0.544125 (Simulation time: 0 hr 24 min 29 sec) 
Heartbeat CPU 0 instructions: 80000000 cycles: 59977793 heartbeat IPC: 1.39468 cumulative IPC: 0.682962 (Simulation time: 0 hr 27 min 0 sec) 
Heartbeat CPU 0 instructions: 90000001 cycles: 67290681 heartbeat IPC: 1.36745 cumulative IPC: 0.780652 (Simulation time: 0 hr 29 min 25 sec) 
Heartbeat CPU 0 instructions: 100000003 cycles: 74464412 heartbeat IPC: 1.39398 cumulative IPC: 0.855975 (Simulation time: 0 hr 30 min 59 sec) 
Finished CPU 0 instructions: 50000003 cycles: 58412945 cumulative IPC: 0.855975 (Simulation time: 0 hr 30 min 59 sec) 

ChampSim completed all CPUs

Region of Interest Statistics

CPU 0 cumulative IPC: 0.855975 instructions: 50000003 cycles: 58412945
L1D TOTAL     ACCESS:   21603340  HIT:   17023838  MISS:    4579502
L1D LOAD      ACCESS:    8618561  HIT:    6338326  MISS:    2280235
L1D RFO       ACCESS:    4580359  HIT:    4475934  MISS:     104425
L1D PREFETCH  ACCESS:    8404420  HIT:    6209578  MISS:    2194842
L1D WRITEBACK ACCESS:          0  HIT:          0  MISS:          0
L1D PREFETCH  REQUESTED:    8650928  ISSUED:    8553671  USEFUL:     106369  USELESS:    2088472
L1D AVERAGE MISS LATENCY: 20.4977 cycles
L1I TOTAL     ACCESS:   17552136  HIT:   15965881  MISS:    1586255
L1I LOAD      ACCESS:   10776295  HIT:   10709835  MISS:      66460
L1I RFO       ACCESS:          0  HIT:          0  MISS:          0
L1I PREFETCH  ACCESS:    6775841  HIT:    5256046  MISS:    1519795
L1I WRITEBACK ACCESS:          0  HIT:          0  MISS:          0
L1I PREFETCH  REQUESTED:    7472146  ISSUED:    7086222  USEFUL:    1088442  USELESS:     431309
L1I AVERAGE MISS LATENCY: 31.1796 cycles
L2C TOTAL     ACCESS:    7932603  HIT:    6869211  MISS:    1063392
L2C LOAD      ACCESS:    2296545  HIT:    2074040  MISS:     222505
L2C RFO       ACCESS:     103460  HIT:      62801  MISS:      40659
L2C PREFETCH  ACCESS:    5275745  HIT:    4476892  MISS:     798853
L2C WRITEBACK ACCESS:     256853  HIT:     255478  MISS:       1375
L2C PREFETCH  REQUESTED:    6493988  ISSUED:    6491346  USEFUL:      21626  USELESS:     776036
L2C AVERAGE MISS LATENCY: 47.7045 cycles
LLC TOTAL     ACCESS:    2311203  HIT:    2168822  MISS:     142381
LLC LOAD      ACCESS:     222281  HIT:     201332  MISS:      20949
LLC RFO       ACCESS:      40656  HIT:      31698  MISS:       8958
LLC PREFETCH  ACCESS:    1910587  HIT:    1798302  MISS:     112285
LLC WRITEBACK ACCESS:     137679  HIT:     137490  MISS:        189
LLC PREFETCH  REQUESTED:          0  ISSUED:          0  USEFUL:      11467  USELESS:      99325
LLC AVERAGE MISS LATENCY: 175.635 cycles
Major fault: 0 Minor fault: 6365
CPU 0 L1D next line prefetcher final stats

DRAM Statistics
 CHANNEL 0
 RQ ROW_BUFFER_HIT:      26606  ROW_BUFFER_MISS:     115570
 DBUS_CONGESTED:      59066
 WQ ROW_BUFFER_HIT:       8997  ROW_BUFFER_MISS:      37836  FULL:          0

 AVG_CONGESTED_CYCLE: 5

CPU 0 Branch Prediction Accuracy: 99.4713% MPKI: 1.11484 Average ROB Occupancy at Mispredict: 120.122

Branch types
NOT_BRANCH: 39456615 78.9132%
BRANCH_DIRECT_JUMP: 445350 0.8907%
BRANCH_INDIRECT: 131149 0.262298%
BRANCH_CONDITIONAL: 8130196 16.2604%
BRANCH_DIRECT_CALL: 732485 1.46497%
BRANCH_INDIRECT_CALL: 172369 0.344738%
BRANCH_RETURN: 931558 1.86312%
BRANCH_OTHER: 0 0%

