Initialize SIGNATURE TABLE
ST_SET: 1
ST_WAY: 256
ST_TAG_BIT: 16
ST_TAG_MASK: ffff

Initialize PATTERN TABLE
PT_SET: 512
PT_WAY: 4
SIG_DELTA_BIT: 7
C_SIG_BIT: 4
C_DELTA_BIT: 4

Initialize PREFETCH FILTER
FILTER_SET: 1024

*** ChampSim Multicore Out-of-Order Simulator ***

Warmup Instructions: 50000000
Simulation Instructions: 50000000
Number of CPUs: 1
LLC sets: 2048
LLC ways: 16
Off-chip DRAM Size: 4096 MB Channels: 1 Width: 64-bit Data Rate: 3200 MT/s

CPU 0 runs /home/ykhodke/ChampSim/dpc3_traces/server_027.champsimtrace.xz
LHT KB: 126.25
SCC KB: 1.56
Total KB: 127.81
CPU 0 L1D next line prefetcher
Heartbeat CPU 0 instructions: 10000001 cycles: 3525857 heartbeat IPC: 2.83619 cumulative IPC: 2.83619 (Simulation time: 0 hr 3 min 21 sec) 
Heartbeat CPU 0 instructions: 20000001 cycles: 7056124 heartbeat IPC: 2.83265 cumulative IPC: 2.83442 (Simulation time: 0 hr 7 min 3 sec) 
Heartbeat CPU 0 instructions: 30000002 cycles: 10581395 heartbeat IPC: 2.83666 cumulative IPC: 2.83517 (Simulation time: 0 hr 11 min 6 sec) 
Heartbeat CPU 0 instructions: 40000000 cycles: 14112340 heartbeat IPC: 2.8321 cumulative IPC: 2.8344 (Simulation time: 0 hr 15 min 5 sec) 
Heartbeat CPU 0 instructions: 50000001 cycles: 17636641 heartbeat IPC: 2.83744 cumulative IPC: 2.83501 (Simulation time: 0 hr 19 min 2 sec) 

Warmup complete CPU 0 instructions: 50000001 cycles: 17636641 (Simulation time: 0 hr 19 min 2 sec) 

Heartbeat CPU 0 instructions: 60000002 cycles: 24703932 heartbeat IPC: 1.41497 cumulative IPC: 1.41497 (Simulation time: 0 hr 23 min 7 sec) 
Heartbeat CPU 0 instructions: 70000003 cycles: 31719589 heartbeat IPC: 1.42538 cumulative IPC: 1.42016 (Simulation time: 0 hr 26 min 22 sec) 
Heartbeat CPU 0 instructions: 80000002 cycles: 38762176 heartbeat IPC: 1.41993 cumulative IPC: 1.42008 (Simulation time: 0 hr 28 min 35 sec) 
Heartbeat CPU 0 instructions: 90000001 cycles: 45868797 heartbeat IPC: 1.40714 cumulative IPC: 1.41682 (Simulation time: 0 hr 29 min 37 sec) 
Heartbeat CPU 0 instructions: 100000002 cycles: 52855642 heartbeat IPC: 1.43126 cumulative IPC: 1.41969 (Simulation time: 0 hr 30 min 9 sec) 
Finished CPU 0 instructions: 50000001 cycles: 35219001 cumulative IPC: 1.41969 (Simulation time: 0 hr 30 min 9 sec) 

ChampSim completed all CPUs

Region of Interest Statistics

CPU 0 cumulative IPC: 1.41969 instructions: 50000001 cycles: 35219001
L1D TOTAL     ACCESS:   20200133  HIT:   18598156  MISS:    1601977
L1D LOAD      ACCESS:    7094121  HIT:    6403545  MISS:     690576
L1D RFO       ACCESS:    6295676  HIT:    6010653  MISS:     285023
L1D PREFETCH  ACCESS:    6810336  HIT:    6183958  MISS:     626378
L1D WRITEBACK ACCESS:          0  HIT:          0  MISS:          0
L1D PREFETCH  REQUESTED:    7139508  ISSUED:    7016124  USEFUL:     151303  USELESS:     475087
L1D AVERAGE MISS LATENCY: 23.8278 cycles
L1I TOTAL     ACCESS:   20738037  HIT:   16607584  MISS:    4130453
L1I LOAD      ACCESS:    9281737  HIT:    8504633  MISS:     777104
L1I RFO       ACCESS:          0  HIT:          0  MISS:          0
L1I PREFETCH  ACCESS:   11456300  HIT:    8102951  MISS:    3353349
L1I WRITEBACK ACCESS:          0  HIT:          0  MISS:          0
L1I PREFETCH  REQUESTED:   13961576  ISSUED:   13961576  USEFUL:    2110770  USELESS:    1242569
L1I AVERAGE MISS LATENCY: 14.0166 cycles
L2C TOTAL     ACCESS:    7833054  HIT:    7072755  MISS:     760299
L2C LOAD      ACCESS:     746523  HIT:     606307  MISS:     140216
L2C RFO       ACCESS:     283384  HIT:     191635  MISS:      91749
L2C PREFETCH  ACCESS:    6243978  HIT:    5720232  MISS:     523746
L2C WRITEBACK ACCESS:     559169  HIT:     554581  MISS:       4588
L2C PREFETCH  REQUESTED:    4374580  ISSUED:    4368041  USEFUL:      18214  USELESS:     504788
L2C AVERAGE MISS LATENCY: 37.5471 cycles
LLC TOTAL     ACCESS:    2112266  HIT:    2079873  MISS:      32393
LLC LOAD      ACCESS:     140055  HIT:     136841  MISS:       3214
LLC RFO       ACCESS:      91749  HIT:      77846  MISS:      13903
LLC PREFETCH  ACCESS:    1726452  HIT:    1711341  MISS:      15111
LLC WRITEBACK ACCESS:     154010  HIT:     153845  MISS:        165
LLC PREFETCH  REQUESTED:          0  ISSUED:          0  USEFUL:       1126  USELESS:      13482
LLC AVERAGE MISS LATENCY: 186.941 cycles
Major fault: 0 Minor fault: 2490
CPU 0 L1D next line prefetcher final stats

DRAM Statistics
 CHANNEL 0
 RQ ROW_BUFFER_HIT:      10762  ROW_BUFFER_MISS:      21466
 DBUS_CONGESTED:      22569
 WQ ROW_BUFFER_HIT:       1569  ROW_BUFFER_MISS:      14594  FULL:          0

 AVG_CONGESTED_CYCLE: 6

CPU 0 Branch Prediction Accuracy: 99.8082% MPKI: 0.35064 Average ROB Occupancy at Mispredict: 160.8

Branch types
NOT_BRANCH: 40857507 81.715%
BRANCH_DIRECT_JUMP: 526635 1.05327%
BRANCH_INDIRECT: 205902 0.411804%
BRANCH_CONDITIONAL: 6184049 12.3681%
BRANCH_DIRECT_CALL: 938468 1.87694%
BRANCH_INDIRECT_CALL: 174486 0.348972%
BRANCH_RETURN: 1112959 2.22592%
BRANCH_OTHER: 0 0%

