Initialize SIGNATURE TABLE
ST_SET: 1
ST_WAY: 256
ST_TAG_BIT: 16
ST_TAG_MASK: ffff

Initialize PATTERN TABLE
PT_SET: 512
PT_WAY: 4
SIG_DELTA_BIT: 7
C_SIG_BIT: 4
C_DELTA_BIT: 4

Initialize PREFETCH FILTER
FILTER_SET: 1024

*** ChampSim Multicore Out-of-Order Simulator ***

Warmup Instructions: 50000000
Simulation Instructions: 50000000
Number of CPUs: 1
LLC sets: 2048
LLC ways: 16
Off-chip DRAM Size: 4096 MB Channels: 1 Width: 64-bit Data Rate: 3200 MT/s

CPU 0 runs /home/ykhodke/ChampSim/dpc3_traces/server_011.champsimtrace.xz
LHT KB: 63.12
SCC KB: 1.56
Total KB: 64.69
CPU 0 L1D next line prefetcher
Heartbeat CPU 0 instructions: 10000002 cycles: 3211133 heartbeat IPC: 3.11417 cumulative IPC: 3.11417 (Simulation time: 0 hr 3 min 29 sec) 
Heartbeat CPU 0 instructions: 20000001 cycles: 6428100 heartbeat IPC: 3.10852 cumulative IPC: 3.11134 (Simulation time: 0 hr 6 min 54 sec) 
Heartbeat CPU 0 instructions: 30000001 cycles: 9688974 heartbeat IPC: 3.06666 cumulative IPC: 3.0963 (Simulation time: 0 hr 10 min 5 sec) 
Heartbeat CPU 0 instructions: 40000003 cycles: 12897402 heartbeat IPC: 3.11679 cumulative IPC: 3.1014 (Simulation time: 0 hr 13 min 5 sec) 
Heartbeat CPU 0 instructions: 50000000 cycles: 16112283 heartbeat IPC: 3.11053 cumulative IPC: 3.10322 (Simulation time: 0 hr 15 min 57 sec) 

Warmup complete CPU 0 instructions: 50000004 cycles: 16112284 (Simulation time: 0 hr 15 min 57 sec) 

Heartbeat CPU 0 instructions: 60000002 cycles: 24327980 heartbeat IPC: 1.21718 cumulative IPC: 1.21718 (Simulation time: 0 hr 18 min 59 sec) 
Heartbeat CPU 0 instructions: 70000001 cycles: 32907924 heartbeat IPC: 1.16551 cumulative IPC: 1.19079 (Simulation time: 0 hr 21 min 46 sec) 
Heartbeat CPU 0 instructions: 80000003 cycles: 41787145 heartbeat IPC: 1.12623 cumulative IPC: 1.16846 (Simulation time: 0 hr 24 min 15 sec) 
Heartbeat CPU 0 instructions: 90000001 cycles: 50194616 heartbeat IPC: 1.18942 cumulative IPC: 1.17363 (Simulation time: 0 hr 26 min 47 sec) 
Heartbeat CPU 0 instructions: 100000000 cycles: 58460639 heartbeat IPC: 1.20977 cumulative IPC: 1.18068 (Simulation time: 0 hr 28 min 34 sec) 
Finished CPU 0 instructions: 50000003 cycles: 42348367 cumulative IPC: 1.18068 (Simulation time: 0 hr 28 min 34 sec) 

ChampSim completed all CPUs

Region of Interest Statistics

CPU 0 cumulative IPC: 1.18068 instructions: 50000003 cycles: 42348367
L1D TOTAL     ACCESS:   18363274  HIT:   17331849  MISS:    1031425
L1D LOAD      ACCESS:    6882431  HIT:    6402294  MISS:     480137
L1D RFO       ACCESS:    4838550  HIT:    4756350  MISS:      82200
L1D PREFETCH  ACCESS:    6642293  HIT:    6173205  MISS:     469088
L1D WRITEBACK ACCESS:          0  HIT:          0  MISS:          0
L1D PREFETCH  REQUESTED:    6921752  ISSUED:    6827153  USEFUL:     138627  USELESS:     330457
L1D AVERAGE MISS LATENCY: 43.6132 cycles
L1I TOTAL     ACCESS:   18583370  HIT:   16221091  MISS:    2362279
L1I LOAD      ACCESS:    8822219  HIT:    8419874  MISS:     402345
L1I RFO       ACCESS:          0  HIT:          0  MISS:          0
L1I PREFETCH  ACCESS:    9761151  HIT:    7801217  MISS:    1959934
L1I WRITEBACK ACCESS:          0  HIT:          0  MISS:          0
L1I PREFETCH  REQUESTED:   16196625  ISSUED:   16196625  USEFUL:     942400  USELESS:    1017526
L1I AVERAGE MISS LATENCY: 27.1998 cycles
L2C TOTAL     ACCESS:    4516847  HIT:    3174805  MISS:    1342042
L2C LOAD      ACCESS:     540472  HIT:     270643  MISS:     269829
L2C RFO       ACCESS:      80233  HIT:      31176  MISS:      49057
L2C PREFETCH  ACCESS:    3628032  HIT:    2607183  MISS:    1020849
L2C WRITEBACK ACCESS:     268110  HIT:     265803  MISS:       2307
L2C PREFETCH  REQUESTED:    3119345  ISSUED:    3115452  USEFUL:      34781  USELESS:     985654
L2C AVERAGE MISS LATENCY: 55.4061 cycles
LLC TOTAL     ACCESS:    2288000  HIT:    2041599  MISS:     246401
LLC LOAD      ACCESS:     269720  HIT:     237287  MISS:      32433
LLC RFO       ACCESS:      49043  HIT:      33068  MISS:      15975
LLC PREFETCH  ACCESS:    1805857  HIT:    1608191  MISS:     197666
LLC WRITEBACK ACCESS:     163380  HIT:     163053  MISS:        327
LLC PREFETCH  REQUESTED:          0  ISSUED:          0  USEFUL:      14476  USELESS:     180859
LLC AVERAGE MISS LATENCY: 175.781 cycles
Major fault: 0 Minor fault: 7005
CPU 0 L1D next line prefetcher final stats

DRAM Statistics
 CHANNEL 0
 RQ ROW_BUFFER_HIT:      50111  ROW_BUFFER_MISS:     195921
 DBUS_CONGESTED:     110610
 WQ ROW_BUFFER_HIT:      13339  ROW_BUFFER_MISS:      53391  FULL:          0

 AVG_CONGESTED_CYCLE: 5

CPU 0 Branch Prediction Accuracy: 97.5565% MPKI: 4.59006 Average ROB Occupancy at Mispredict: 58.3594

Branch types
NOT_BRANCH: 40607199 81.2144%
BRANCH_DIRECT_JUMP: 451601 0.903202%
BRANCH_INDIRECT: 151580 0.30316%
BRANCH_CONDITIONAL: 7041635 14.0833%
BRANCH_DIRECT_CALL: 647827 1.29565%
BRANCH_INDIRECT_CALL: 211373 0.422746%
BRANCH_RETURN: 888439 1.77688%
BRANCH_OTHER: 0 0%

