Initialize SIGNATURE TABLE
ST_SET: 1
ST_WAY: 256
ST_TAG_BIT: 16
ST_TAG_MASK: ffff

Initialize PATTERN TABLE
PT_SET: 512
PT_WAY: 4
SIG_DELTA_BIT: 7
C_SIG_BIT: 4
C_DELTA_BIT: 4

Initialize PREFETCH FILTER
FILTER_SET: 1024

*** ChampSim Multicore Out-of-Order Simulator ***

Warmup Instructions: 50000000
Simulation Instructions: 50000000
Number of CPUs: 1
LLC sets: 2048
LLC ways: 16
Off-chip DRAM Size: 4096 MB Channels: 1 Width: 64-bit Data Rate: 3200 MT/s

CPU 0 runs /home/ykhodke/ChampSim/dpc3_traces/server_024.champsimtrace.xz
LHT KB: 126.25
SCC KB: 1.56
Total KB: 127.81
CPU 0 L1D next line prefetcher
Heartbeat CPU 0 instructions: 10000000 cycles: 3503615 heartbeat IPC: 2.85419 cumulative IPC: 2.85419 (Simulation time: 0 hr 4 min 0 sec) 
Heartbeat CPU 0 instructions: 20000002 cycles: 7000090 heartbeat IPC: 2.86002 cumulative IPC: 2.85711 (Simulation time: 0 hr 7 min 46 sec) 
Heartbeat CPU 0 instructions: 30000000 cycles: 10506740 heartbeat IPC: 2.85172 cumulative IPC: 2.85531 (Simulation time: 0 hr 11 min 19 sec) 
Heartbeat CPU 0 instructions: 40000000 cycles: 14011351 heartbeat IPC: 2.85338 cumulative IPC: 2.85483 (Simulation time: 0 hr 14 min 48 sec) 
Heartbeat CPU 0 instructions: 50000001 cycles: 17505028 heartbeat IPC: 2.86231 cumulative IPC: 2.85632 (Simulation time: 0 hr 17 min 38 sec) 

Warmup complete CPU 0 instructions: 50000001 cycles: 17505028 (Simulation time: 0 hr 17 min 38 sec) 

Heartbeat CPU 0 instructions: 60000002 cycles: 24434021 heartbeat IPC: 1.44321 cumulative IPC: 1.44321 (Simulation time: 0 hr 20 min 37 sec) 
Heartbeat CPU 0 instructions: 70000000 cycles: 31411124 heartbeat IPC: 1.43326 cumulative IPC: 1.43822 (Simulation time: 0 hr 23 min 32 sec) 
*** Reached end of trace for Core: 0 Repeating trace: /home/ykhodke/ChampSim/dpc3_traces/server_024.champsimtrace.xz
Heartbeat CPU 0 instructions: 80000003 cycles: 38355386 heartbeat IPC: 1.44004 cumulative IPC: 1.43882 (Simulation time: 0 hr 26 min 9 sec) 
Heartbeat CPU 0 instructions: 90000003 cycles: 45373051 heartbeat IPC: 1.42498 cumulative IPC: 1.43534 (Simulation time: 0 hr 28 min 7 sec) 
Heartbeat CPU 0 instructions: 100000002 cycles: 52342805 heartbeat IPC: 1.43477 cumulative IPC: 1.43522 (Simulation time: 0 hr 29 min 0 sec) 
Finished CPU 0 instructions: 50000001 cycles: 34837777 cumulative IPC: 1.43522 (Simulation time: 0 hr 29 min 0 sec) 

ChampSim completed all CPUs

Region of Interest Statistics

CPU 0 cumulative IPC: 1.43522 instructions: 50000001 cycles: 34837777
L1D TOTAL     ACCESS:   19828098  HIT:   18310237  MISS:    1517861
L1D LOAD      ACCESS:    7004037  HIT:    6322387  MISS:     681650
L1D RFO       ACCESS:    6150144  HIT:    5876112  MISS:     274032
L1D PREFETCH  ACCESS:    6673917  HIT:    6111738  MISS:     562179
L1D WRITEBACK ACCESS:          0  HIT:          0  MISS:          0
L1D PREFETCH  REQUESTED:    7056847  ISSUED:    6937876  USEFUL:     134693  USELESS:     427492
L1D AVERAGE MISS LATENCY: 26.2715 cycles
L1I TOTAL     ACCESS:   24045840  HIT:   19009531  MISS:    5036309
L1I LOAD      ACCESS:    9249249  HIT:    8774592  MISS:     474657
L1I RFO       ACCESS:          0  HIT:          0  MISS:          0
L1I PREFETCH  ACCESS:   14796591  HIT:   10234939  MISS:    4561652
L1I WRITEBACK ACCESS:          0  HIT:          0  MISS:          0
L1I PREFETCH  REQUESTED:   17311457  ISSUED:   17311457  USEFUL:    2235200  USELESS:    2326464
L1I AVERAGE MISS LATENCY: 15.7091 cycles
L2C TOTAL     ACCESS:    8826521  HIT:    8028472  MISS:     798049
L2C LOAD      ACCESS:     713084  HIT:     563916  MISS:     149168
L2C RFO       ACCESS:     272209  HIT:     178993  MISS:      93216
L2C PREFETCH  ACCESS:    7321023  HIT:    6772801  MISS:     548222
L2C WRITEBACK ACCESS:     520205  HIT:     512762  MISS:       7443
L2C PREFETCH  REQUESTED:    4840215  ISSUED:    4834879  USEFUL:      21711  USELESS:     525420
L2C AVERAGE MISS LATENCY: 41.6197 cycles
LLC TOTAL     ACCESS:    2234011  HIT:    2184547  MISS:      49464
LLC LOAD      ACCESS:     148974  HIT:     143986  MISS:       4988
LLC RFO       ACCESS:      93213  HIT:      70999  MISS:      22214
LLC PREFETCH  ACCESS:    1836650  HIT:    1814613  MISS:      22037
LLC WRITEBACK ACCESS:     155174  HIT:     154949  MISS:        225
LLC PREFETCH  REQUESTED:          0  ISSUED:          0  USEFUL:       1767  USELESS:      20458
LLC AVERAGE MISS LATENCY: 205.977 cycles
Major fault: 0 Minor fault: 2383
CPU 0 L1D next line prefetcher final stats

DRAM Statistics
 CHANNEL 0
 RQ ROW_BUFFER_HIT:      17019  ROW_BUFFER_MISS:      32217
 DBUS_CONGESTED:      36810
 WQ ROW_BUFFER_HIT:       2615  ROW_BUFFER_MISS:      22736  FULL:          0

 AVG_CONGESTED_CYCLE: 6

CPU 0 Branch Prediction Accuracy: 99.7477% MPKI: 0.46156 Average ROB Occupancy at Mispredict: 161.527

Branch types
NOT_BRANCH: 40853619 81.7072%
BRANCH_DIRECT_JUMP: 566815 1.13363%
BRANCH_INDIRECT: 197171 0.394342%
BRANCH_CONDITIONAL: 6308407 12.6168%
BRANCH_DIRECT_CALL: 876400 1.7528%
BRANCH_INDIRECT_CALL: 160491 0.320982%
BRANCH_RETURN: 1036885 2.07377%
BRANCH_OTHER: 0 0%

