Initialize SIGNATURE TABLE
ST_SET: 1
ST_WAY: 256
ST_TAG_BIT: 16
ST_TAG_MASK: ffff

Initialize PATTERN TABLE
PT_SET: 512
PT_WAY: 4
SIG_DELTA_BIT: 7
C_SIG_BIT: 4
C_DELTA_BIT: 4

Initialize PREFETCH FILTER
FILTER_SET: 1024

*** ChampSim Multicore Out-of-Order Simulator ***

Warmup Instructions: 50000000
Simulation Instructions: 50000000
Number of CPUs: 1
LLC sets: 2048
LLC ways: 16
Off-chip DRAM Size: 4096 MB Channels: 1 Width: 64-bit Data Rate: 3200 MT/s

CPU 0 runs /home/ykhodke/ChampSim/dpc3_traces/server_013.champsimtrace.xz
L1I D-JOLT instruction prefetcher has been constructed!
CPU 0 L1D next line prefetcher
Heartbeat CPU 0 instructions: 10000000 cycles: 3210924 heartbeat IPC: 3.11437 cumulative IPC: 3.11437 (Simulation time: 0 hr 3 min 14 sec) 
Heartbeat CPU 0 instructions: 20000001 cycles: 6411474 heartbeat IPC: 3.12446 cumulative IPC: 3.11941 (Simulation time: 0 hr 6 min 23 sec) 
Heartbeat CPU 0 instructions: 30000002 cycles: 9615635 heartbeat IPC: 3.12094 cumulative IPC: 3.11992 (Simulation time: 0 hr 9 min 43 sec) 
Heartbeat CPU 0 instructions: 40000002 cycles: 12815911 heartbeat IPC: 3.12473 cumulative IPC: 3.12112 (Simulation time: 0 hr 13 min 8 sec) 
Heartbeat CPU 0 instructions: 50000000 cycles: 16016054 heartbeat IPC: 3.12486 cumulative IPC: 3.12187 (Simulation time: 0 hr 16 min 53 sec) 

Warmup complete CPU 0 instructions: 50000004 cycles: 16016055 (Simulation time: 0 hr 16 min 53 sec) 

Heartbeat CPU 0 instructions: 60000002 cycles: 23602115 heartbeat IPC: 1.31821 cumulative IPC: 1.31821 (Simulation time: 0 hr 20 min 42 sec) 
Heartbeat CPU 0 instructions: 70000002 cycles: 31335422 heartbeat IPC: 1.29311 cumulative IPC: 1.30554 (Simulation time: 0 hr 24 min 37 sec) 
Heartbeat CPU 0 instructions: 80000003 cycles: 38485307 heartbeat IPC: 1.39862 cumulative IPC: 1.33516 (Simulation time: 0 hr 27 min 4 sec) 
Heartbeat CPU 0 instructions: 90000003 cycles: 45831751 heartbeat IPC: 1.3612 cumulative IPC: 1.34158 (Simulation time: 0 hr 28 min 47 sec) 
Heartbeat CPU 0 instructions: 100000003 cycles: 53174060 heartbeat IPC: 1.36197 cumulative IPC: 1.34561 (Simulation time: 0 hr 29 min 49 sec) 
Finished CPU 0 instructions: 50000003 cycles: 37158006 cumulative IPC: 1.34561 (Simulation time: 0 hr 29 min 49 sec) 

ChampSim completed all CPUs

Region of Interest Statistics

CPU 0 cumulative IPC: 1.34561 instructions: 50000003 cycles: 37158006
L1D TOTAL     ACCESS:   17302170  HIT:   16235712  MISS:    1066458
L1D LOAD      ACCESS:    6306501  HIT:    5805164  MISS:     501337
L1D RFO       ACCESS:    4928515  HIT:    4848247  MISS:      80268
L1D PREFETCH  ACCESS:    6067154  HIT:    5582301  MISS:     484853
L1D WRITEBACK ACCESS:          0  HIT:          0  MISS:          0
L1D PREFETCH  REQUESTED:    6340452  ISSUED:    6245977  USEFUL:     133305  USELESS:     351557
L1D AVERAGE MISS LATENCY: 42.292 cycles
L1I TOTAL     ACCESS:   15800395  HIT:   13877609  MISS:    1922786
L1I LOAD      ACCESS:    8707413  HIT:    8617866  MISS:      89547
L1I RFO       ACCESS:          0  HIT:          0  MISS:          0
L1I PREFETCH  ACCESS:    7092982  HIT:    5259743  MISS:    1833239
L1I WRITEBACK ACCESS:          0  HIT:          0  MISS:          0
L1I PREFETCH  REQUESTED:    7840697  ISSUED:    7392546  USEFUL:    1397505  USELESS:     435644
L1I AVERAGE MISS LATENCY: 32.2699 cycles
L2C TOTAL     ACCESS:    3870668  HIT:    2488361  MISS:    1382307
L2C LOAD      ACCESS:     527742  HIT:     240421  MISS:     287321
L2C RFO       ACCESS:      78857  HIT:      29559  MISS:      49298
L2C PREFETCH  ACCESS:    2988289  HIT:    1944429  MISS:    1043860
L2C WRITEBACK ACCESS:     275780  HIT:     273952  MISS:       1828
L2C PREFETCH  REQUESTED:    2909127  ISSUED:    2906788  USEFUL:      27212  USELESS:    1016900
L2C AVERAGE MISS LATENCY: 46.1291 cycles
LLC TOTAL     ACCESS:    2485023  HIT:    2320355  MISS:     164668
LLC LOAD      ACCESS:     287207  HIT:     263931  MISS:      23276
LLC RFO       ACCESS:      49291  HIT:      39677  MISS:       9614
LLC PREFETCH  ACCESS:    1974502  HIT:    1842950  MISS:     131552
LLC WRITEBACK ACCESS:     174023  HIT:     173797  MISS:        226
LLC PREFETCH  REQUESTED:          0  ISSUED:          0  USEFUL:      12823  USELESS:     118860
LLC AVERAGE MISS LATENCY: 174.611 cycles
Major fault: 0 Minor fault: 6209
CPU 0 L1D next line prefetcher final stats

DRAM Statistics
 CHANNEL 0
 RQ ROW_BUFFER_HIT:      26310  ROW_BUFFER_MISS:     138121
 DBUS_CONGESTED:      68237
 WQ ROW_BUFFER_HIT:      11717  ROW_BUFFER_MISS:      49439  FULL:          0

 AVG_CONGESTED_CYCLE: 5

CPU 0 Branch Prediction Accuracy: 99.4114% MPKI: 1.0933 Average ROB Occupancy at Mispredict: 124.582

Branch types
NOT_BRANCH: 40713270 81.4265%
BRANCH_DIRECT_JUMP: 463701 0.927402%
BRANCH_INDIRECT: 146544 0.293088%
BRANCH_CONDITIONAL: 6981955 13.9639%
BRANCH_DIRECT_CALL: 665005 1.33001%
BRANCH_INDIRECT_CALL: 165152 0.330304%
BRANCH_RETURN: 864314 1.72863%
BRANCH_OTHER: 0 0%

