Initialize SIGNATURE TABLE
ST_SET: 1
ST_WAY: 256
ST_TAG_BIT: 16
ST_TAG_MASK: ffff

Initialize PATTERN TABLE
PT_SET: 512
PT_WAY: 4
SIG_DELTA_BIT: 7
C_SIG_BIT: 4
C_DELTA_BIT: 4

Initialize PREFETCH FILTER
FILTER_SET: 1024

*** ChampSim Multicore Out-of-Order Simulator ***

Warmup Instructions: 50000000
Simulation Instructions: 50000000
Number of CPUs: 1
LLC sets: 2048
LLC ways: 16
Off-chip DRAM Size: 4096 MB Channels: 1 Width: 64-bit Data Rate: 3200 MT/s

CPU 0 runs /home/ykhodke/ChampSim/dpc3_traces/server_019.champsimtrace.xz
L1I D-JOLT instruction prefetcher has been constructed!
CPU 0 L1D next line prefetcher
Heartbeat CPU 0 instructions: 10000002 cycles: 3623301 heartbeat IPC: 2.75991 cumulative IPC: 2.75991 (Simulation time: 0 hr 3 min 23 sec) 
Heartbeat CPU 0 instructions: 20000003 cycles: 7248274 heartbeat IPC: 2.75864 cumulative IPC: 2.75928 (Simulation time: 0 hr 6 min 44 sec) 
Heartbeat CPU 0 instructions: 30000002 cycles: 10872214 heartbeat IPC: 2.75943 cumulative IPC: 2.75933 (Simulation time: 0 hr 10 min 7 sec) 
Heartbeat CPU 0 instructions: 40000002 cycles: 14507882 heartbeat IPC: 2.75053 cumulative IPC: 2.75712 (Simulation time: 0 hr 13 min 40 sec) 
Heartbeat CPU 0 instructions: 50000001 cycles: 18132232 heartbeat IPC: 2.75912 cumulative IPC: 2.75752 (Simulation time: 0 hr 17 min 20 sec) 

Warmup complete CPU 0 instructions: 50000001 cycles: 18132232 (Simulation time: 0 hr 17 min 20 sec) 

Heartbeat CPU 0 instructions: 60000000 cycles: 38053112 heartbeat IPC: 0.501986 cumulative IPC: 0.501986 (Simulation time: 0 hr 22 min 5 sec) 
Heartbeat CPU 0 instructions: 70000002 cycles: 61745063 heartbeat IPC: 0.422084 cumulative IPC: 0.458581 (Simulation time: 0 hr 25 min 57 sec) 
Heartbeat CPU 0 instructions: 80000001 cycles: 82394163 heartbeat IPC: 0.484283 cumulative IPC: 0.466839 (Simulation time: 0 hr 29 min 23 sec) 
Heartbeat CPU 0 instructions: 90000002 cycles: 100029993 heartbeat IPC: 0.567028 cumulative IPC: 0.488414 (Simulation time: 0 hr 31 min 1 sec) 
Heartbeat CPU 0 instructions: 100000002 cycles: 117612537 heartbeat IPC: 0.568746 cumulative IPC: 0.502612 (Simulation time: 0 hr 31 min 39 sec) 
Finished CPU 0 instructions: 50000001 cycles: 99480305 cumulative IPC: 0.502612 (Simulation time: 0 hr 31 min 39 sec) 

ChampSim completed all CPUs

Region of Interest Statistics

CPU 0 cumulative IPC: 0.502612 instructions: 50000001 cycles: 99480305
L1D TOTAL     ACCESS:   18296795  HIT:   16073326  MISS:    2223469
L1D LOAD      ACCESS:    6975385  HIT:    6223338  MISS:     752047
L1D RFO       ACCESS:    5508795  HIT:    4606930  MISS:     901865
L1D PREFETCH  ACCESS:    5812615  HIT:    5243058  MISS:     569557
L1D WRITEBACK ACCESS:          0  HIT:          0  MISS:          0
L1D PREFETCH  REQUESTED:    7012910  ISSUED:    6827693  USEFUL:     200417  USELESS:     369050
L1D AVERAGE MISS LATENCY: 189.113 cycles
L1I TOTAL     ACCESS:   17993808  HIT:   14621155  MISS:    3372653
L1I LOAD      ACCESS:    9887703  HIT:    9843421  MISS:      44282
L1I RFO       ACCESS:          0  HIT:          0  MISS:          0
L1I PREFETCH  ACCESS:    8106105  HIT:    4777734  MISS:    3328371
L1I WRITEBACK ACCESS:          0  HIT:          0  MISS:          0
L1I PREFETCH  REQUESTED:    8859593  ISSUED:    8778537  USEFUL:    2493513  USELESS:     834801
L1I AVERAGE MISS LATENCY: 19.3801 cycles
L2C TOTAL     ACCESS:    8247649  HIT:    6348514  MISS:    1899135
L2C LOAD      ACCESS:     591391  HIT:     254269  MISS:     337122
L2C RFO       ACCESS:     901430  HIT:      17431  MISS:     883999
L2C PREFETCH  ACCESS:    5580231  HIT:    4904979  MISS:     675252
L2C WRITEBACK ACCESS:    1174597  HIT:    1171835  MISS:       2762
L2C PREFETCH  REQUESTED:    5107952  ISSUED:    5102093  USEFUL:      22018  USELESS:     651738
L2C AVERAGE MISS LATENCY: 226.64 cycles
LLC TOTAL     ACCESS:    4455055  HIT:    2805324  MISS:    1649731
LLC LOAD      ACCESS:     336997  HIT:     168150  MISS:     168847
LLC RFO       ACCESS:     883998  HIT:     113399  MISS:     770599
LLC PREFETCH  ACCESS:    2120630  HIT:    1412607  MISS:     708023
LLC WRITEBACK ACCESS:    1113430  HIT:    1111168  MISS:       2262
LLC PREFETCH  REQUESTED:          0  ISSUED:          0  USEFUL:      54103  USELESS:     653200
LLC AVERAGE MISS LATENCY: 281.255 cycles
Major fault: 0 Minor fault: 25694
CPU 0 L1D next line prefetcher final stats

DRAM Statistics
 CHANNEL 0
 RQ ROW_BUFFER_HIT:     402961  ROW_BUFFER_MISS:    1244253
 DBUS_CONGESTED:    1617835
 WQ ROW_BUFFER_HIT:     256911  ROW_BUFFER_MISS:     684841  FULL:          0

 AVG_CONGESTED_CYCLE: 6

CPU 0 Branch Prediction Accuracy: 99.2186% MPKI: 1.32192 Average ROB Occupancy at Mispredict: 179.503

Branch types
NOT_BRANCH: 41540785 83.0816%
BRANCH_DIRECT_JUMP: 462384 0.924768%
BRANCH_INDIRECT: 45460 0.09092%
BRANCH_CONDITIONAL: 6209281 12.4186%
BRANCH_DIRECT_CALL: 666241 1.33248%
BRANCH_INDIRECT_CALL: 204728 0.409456%
BRANCH_RETURN: 870978 1.74196%
BRANCH_OTHER: 0 0%

