Initialize SIGNATURE TABLE
ST_SET: 1
ST_WAY: 256
ST_TAG_BIT: 16
ST_TAG_MASK: ffff

Initialize PATTERN TABLE
PT_SET: 512
PT_WAY: 4
SIG_DELTA_BIT: 7
C_SIG_BIT: 4
C_DELTA_BIT: 4

Initialize PREFETCH FILTER
FILTER_SET: 1024

*** ChampSim Multicore Out-of-Order Simulator ***

Warmup Instructions: 50000000
Simulation Instructions: 50000000
Number of CPUs: 1
LLC sets: 2048
LLC ways: 16
Off-chip DRAM Size: 4096 MB Channels: 1 Width: 64-bit Data Rate: 3200 MT/s

CPU 0 runs /home/ykhodke/ChampSim/dpc3_traces/server_032.champsimtrace.xz
L1I D-JOLT instruction prefetcher has been constructed!
CPU 0 L1D next line prefetcher
Heartbeat CPU 0 instructions: 10000002 cycles: 3521069 heartbeat IPC: 2.84005 cumulative IPC: 2.84005 (Simulation time: 0 hr 3 min 38 sec) 
Heartbeat CPU 0 instructions: 20000003 cycles: 7043007 heartbeat IPC: 2.83935 cumulative IPC: 2.8397 (Simulation time: 0 hr 7 min 39 sec) 
Heartbeat CPU 0 instructions: 30000000 cycles: 10565084 heartbeat IPC: 2.83923 cumulative IPC: 2.83954 (Simulation time: 0 hr 11 min 39 sec) 
Heartbeat CPU 0 instructions: 40000003 cycles: 14088040 heartbeat IPC: 2.83853 cumulative IPC: 2.83929 (Simulation time: 0 hr 15 min 33 sec) 
Heartbeat CPU 0 instructions: 50000000 cycles: 17610173 heartbeat IPC: 2.83919 cumulative IPC: 2.83927 (Simulation time: 0 hr 18 min 53 sec) 

Warmup complete CPU 0 instructions: 50000004 cycles: 17610174 (Simulation time: 0 hr 18 min 53 sec) 

Heartbeat CPU 0 instructions: 60000002 cycles: 24295079 heartbeat IPC: 1.49591 cumulative IPC: 1.49591 (Simulation time: 0 hr 22 min 10 sec) 
Heartbeat CPU 0 instructions: 70000000 cycles: 30978082 heartbeat IPC: 1.49633 cumulative IPC: 1.49612 (Simulation time: 0 hr 25 min 22 sec) 
*** Reached end of trace for Core: 0 Repeating trace: /home/ykhodke/ChampSim/dpc3_traces/server_032.champsimtrace.xz
Heartbeat CPU 0 instructions: 80000003 cycles: 37659743 heartbeat IPC: 1.49663 cumulative IPC: 1.49629 (Simulation time: 0 hr 28 min 2 sec) 
Heartbeat CPU 0 instructions: 90000002 cycles: 44315788 heartbeat IPC: 1.50239 cumulative IPC: 1.49781 (Simulation time: 0 hr 29 min 30 sec) 
Heartbeat CPU 0 instructions: 100000001 cycles: 50980031 heartbeat IPC: 1.50055 cumulative IPC: 1.49836 (Simulation time: 0 hr 30 min 1 sec) 
Finished CPU 0 instructions: 50000002 cycles: 33369859 cumulative IPC: 1.49836 (Simulation time: 0 hr 30 min 1 sec) 

ChampSim completed all CPUs

Region of Interest Statistics

CPU 0 cumulative IPC: 1.49836 instructions: 50000002 cycles: 33369859
L1D TOTAL     ACCESS:   19811665  HIT:   17983509  MISS:    1828156
L1D LOAD      ACCESS:    6764595  HIT:    5968745  MISS:     795850
L1D RFO       ACCESS:    6561681  HIT:    6268099  MISS:     293582
L1D PREFETCH  ACCESS:    6485389  HIT:    5746665  MISS:     738724
L1D WRITEBACK ACCESS:          0  HIT:          0  MISS:          0
L1D PREFETCH  REQUESTED:    6813194  ISSUED:    6674374  USEFUL:     168611  USELESS:     570112
L1D AVERAGE MISS LATENCY: 18.506 cycles
L1I TOTAL     ACCESS:   17107177  HIT:   13717519  MISS:    3389658
L1I LOAD      ACCESS:    9694525  HIT:    9642081  MISS:      52444
L1I RFO       ACCESS:          0  HIT:          0  MISS:          0
L1I PREFETCH  ACCESS:    7412652  HIT:    4075438  MISS:    3337214
L1I WRITEBACK ACCESS:          0  HIT:          0  MISS:          0
L1I PREFETCH  REQUESTED:    7730435  ISSUED:    7718768  USEFUL:    3140479  USELESS:     196735
L1I AVERAGE MISS LATENCY: 17.2197 cycles
L2C TOTAL     ACCESS:    7732675  HIT:    7248738  MISS:     483937
L2C LOAD      ACCESS:     820207  HIT:     730362  MISS:      89845
L2C RFO       ACCESS:     292321  HIT:     252591  MISS:      39730
L2C PREFETCH  ACCESS:    5983767  HIT:    5631297  MISS:     352470
L2C WRITEBACK ACCESS:     636380  HIT:     634488  MISS:       1892
L2C PREFETCH  REQUESTED:    6167344  ISSUED:    6135335  USEFUL:       3060  USELESS:     349347
L2C AVERAGE MISS LATENCY: 32.6628 cycles
LLC TOTAL     ACCESS:    2569603  HIT:    2563180  MISS:       6423
LLC LOAD      ACCESS:      89754  HIT:      89253  MISS:        501
LLC RFO       ACCESS:      39727  HIT:      39727  MISS:          0
LLC PREFETCH  ACCESS:    2362508  HIT:    2356614  MISS:       5894
LLC WRITEBACK ACCESS:      77614  HIT:      77586  MISS:         28
LLC PREFETCH  REQUESTED:          0  ISSUED:          0  USEFUL:        387  USELESS:       2327
LLC AVERAGE MISS LATENCY: 149.476 cycles
Major fault: 0 Minor fault: 1183
CPU 0 L1D next line prefetcher final stats

DRAM Statistics
 CHANNEL 0
 RQ ROW_BUFFER_HIT:       1669  ROW_BUFFER_MISS:       4726
 DBUS_CONGESTED:        867
 WQ ROW_BUFFER_HIT:          1  ROW_BUFFER_MISS:         28  FULL:          0

 AVG_CONGESTED_CYCLE: 5

CPU 0 Branch Prediction Accuracy: 99.8762% MPKI: 0.2296 Average ROB Occupancy at Mispredict: 184.839

Branch types
NOT_BRANCH: 40726171 81.4523%
BRANCH_DIRECT_JUMP: 508374 1.01675%
BRANCH_INDIRECT: 180051 0.360102%
BRANCH_CONDITIONAL: 5999665 11.9993%
BRANCH_DIRECT_CALL: 1086739 2.17348%
BRANCH_INDIRECT_CALL: 206109 0.412218%
BRANCH_RETURN: 1292837 2.58567%
BRANCH_OTHER: 0 0%

