Initialize SIGNATURE TABLE
ST_SET: 1
ST_WAY: 256
ST_TAG_BIT: 16
ST_TAG_MASK: ffff

Initialize PATTERN TABLE
PT_SET: 512
PT_WAY: 4
SIG_DELTA_BIT: 7
C_SIG_BIT: 4
C_DELTA_BIT: 4

Initialize PREFETCH FILTER
FILTER_SET: 1024

*** ChampSim Multicore Out-of-Order Simulator ***

Warmup Instructions: 50000000
Simulation Instructions: 50000000
Number of CPUs: 1
LLC sets: 2048
LLC ways: 16
Off-chip DRAM Size: 4096 MB Channels: 1 Width: 64-bit Data Rate: 3200 MT/s

CPU 0 runs /home/ykhodke/ChampSim/dpc3_traces/server_036.champsimtrace.xz
L1I D-JOLT instruction prefetcher has been constructed!
CPU 0 L1D next line prefetcher
Heartbeat CPU 0 instructions: 10000000 cycles: 3458968 heartbeat IPC: 2.89104 cumulative IPC: 2.89104 (Simulation time: 0 hr 2 min 59 sec) 
Heartbeat CPU 0 instructions: 20000000 cycles: 6924758 heartbeat IPC: 2.88534 cumulative IPC: 2.88819 (Simulation time: 0 hr 6 min 8 sec) 
Heartbeat CPU 0 instructions: 30000003 cycles: 10432812 heartbeat IPC: 2.85058 cumulative IPC: 2.87554 (Simulation time: 0 hr 9 min 4 sec) 
Heartbeat CPU 0 instructions: 40000000 cycles: 13895311 heartbeat IPC: 2.88809 cumulative IPC: 2.87867 (Simulation time: 0 hr 12 min 38 sec) 
Heartbeat CPU 0 instructions: 50000002 cycles: 17357013 heartbeat IPC: 2.88875 cumulative IPC: 2.88068 (Simulation time: 0 hr 16 min 7 sec) 

Warmup complete CPU 0 instructions: 50000002 cycles: 17357013 (Simulation time: 0 hr 16 min 7 sec) 

Heartbeat CPU 0 instructions: 60000000 cycles: 22935507 heartbeat IPC: 1.7926 cumulative IPC: 1.7926 (Simulation time: 0 hr 19 min 5 sec) 
Heartbeat CPU 0 instructions: 70000001 cycles: 28464904 heartbeat IPC: 1.80852 cumulative IPC: 1.80052 (Simulation time: 0 hr 22 min 37 sec) 
Heartbeat CPU 0 instructions: 80000001 cycles: 34030460 heartbeat IPC: 1.79677 cumulative IPC: 1.79927 (Simulation time: 0 hr 25 min 23 sec) 
Heartbeat CPU 0 instructions: 90000002 cycles: 39566810 heartbeat IPC: 1.80624 cumulative IPC: 1.80101 (Simulation time: 0 hr 27 min 42 sec) 
Heartbeat CPU 0 instructions: 100000001 cycles: 45093756 heartbeat IPC: 1.80932 cumulative IPC: 1.80266 (Simulation time: 0 hr 28 min 57 sec) 
Finished CPU 0 instructions: 50000003 cycles: 27736744 cumulative IPC: 1.80266 (Simulation time: 0 hr 28 min 57 sec) 

ChampSim completed all CPUs

Region of Interest Statistics

CPU 0 cumulative IPC: 1.80266 instructions: 50000003 cycles: 27736744
L1D TOTAL     ACCESS:   20444387  HIT:   20384228  MISS:      60159
L1D LOAD      ACCESS:    6652808  HIT:    6618005  MISS:      34803
L1D RFO       ACCESS:    7343109  HIT:    7335891  MISS:       7218
L1D PREFETCH  ACCESS:    6448470  HIT:    6430332  MISS:      18138
L1D WRITEBACK ACCESS:          0  HIT:          0  MISS:          0
L1D PREFETCH  REQUESTED:    6653770  ISSUED:    6479500  USEFUL:       5464  USELESS:      12675
L1D AVERAGE MISS LATENCY: 17.904 cycles
L1I TOTAL     ACCESS:   17456626  HIT:   12748308  MISS:    4708318
L1I LOAD      ACCESS:    8974083  HIT:    8973510  MISS:        573
L1I RFO       ACCESS:          0  HIT:          0  MISS:          0
L1I PREFETCH  ACCESS:    8482543  HIT:    3774798  MISS:    4707745
L1I WRITEBACK ACCESS:          0  HIT:          0  MISS:          0
L1I PREFETCH  REQUESTED:    8742627  ISSUED:    8741230  USEFUL:    3977152  USELESS:     730550
L1I AVERAGE MISS LATENCY: 14.6947 cycles
L2C TOTAL     ACCESS:    6887299  HIT:    6885127  MISS:       2172
L2C LOAD      ACCESS:      35046  HIT:      34679  MISS:        367
L2C RFO       ACCESS:       7210  HIT:       7163  MISS:         47
L2C PREFETCH  ACCESS:    6829418  HIT:    6827671  MISS:       1747
L2C WRITEBACK ACCESS:      15625  HIT:      15614  MISS:         11
L2C PREFETCH  REQUESTED:    5901234  ISSUED:    5898881  USEFUL:        230  USELESS:       1020
L2C AVERAGE MISS LATENCY: 172.772 cycles
LLC TOTAL     ACCESS:     948385  HIT:     945248  MISS:       3137
LLC LOAD      ACCESS:        367  HIT:        137  MISS:        230
LLC RFO       ACCESS:         47  HIT:         17  MISS:         30
LLC PREFETCH  ACCESS:     947164  HIT:     944289  MISS:       2875
LLC WRITEBACK ACCESS:        807  HIT:        805  MISS:          2
LLC PREFETCH  REQUESTED:          0  ISSUED:          0  USEFUL:         69  USELESS:        762
LLC AVERAGE MISS LATENCY: 320.715 cycles
Major fault: 0 Minor fault: 1934
CPU 0 L1D next line prefetcher final stats

DRAM Statistics
 CHANNEL 0
 RQ ROW_BUFFER_HIT:        699  ROW_BUFFER_MISS:       2436
 DBUS_CONGESTED:       2025
 WQ ROW_BUFFER_HIT:        309  ROW_BUFFER_MISS:       1862  FULL:          0

 AVG_CONGESTED_CYCLE: 6

CPU 0 Branch Prediction Accuracy: 99.8717% MPKI: 0.21174 Average ROB Occupancy at Mispredict: 228.066

Branch types
NOT_BRANCH: 41748430 83.4969%
BRANCH_DIRECT_JUMP: 468563 0.937126%
BRANCH_INDIRECT: 0 0%
BRANCH_CONDITIONAL: 5599753 11.1995%
BRANCH_DIRECT_CALL: 885105 1.77021%
BRANCH_INDIRECT_CALL: 206338 0.412676%
BRANCH_RETURN: 1091467 2.18293%
BRANCH_OTHER: 0 0%

