Initialize SIGNATURE TABLE
ST_SET: 1
ST_WAY: 256
ST_TAG_BIT: 16
ST_TAG_MASK: ffff

Initialize PATTERN TABLE
PT_SET: 512
PT_WAY: 4
SIG_DELTA_BIT: 7
C_SIG_BIT: 4
C_DELTA_BIT: 4

Initialize PREFETCH FILTER
FILTER_SET: 1024

*** ChampSim Multicore Out-of-Order Simulator ***

Warmup Instructions: 50000000
Simulation Instructions: 50000000
Number of CPUs: 1
LLC sets: 2048
LLC ways: 16
Off-chip DRAM Size: 4096 MB Channels: 1 Width: 64-bit Data Rate: 3200 MT/s

CPU 0 runs /home/ykhodke/ChampSim/dpc3_traces/server_009.champsimtrace.xz
L1I D-JOLT instruction prefetcher has been constructed!
CPU 0 L1D next line prefetcher
Heartbeat CPU 0 instructions: 10000003 cycles: 3196849 heartbeat IPC: 3.12808 cumulative IPC: 3.12808 (Simulation time: 0 hr 2 min 22 sec) 
Heartbeat CPU 0 instructions: 20000001 cycles: 6386568 heartbeat IPC: 3.13507 cumulative IPC: 3.13157 (Simulation time: 0 hr 4 min 44 sec) 
Heartbeat CPU 0 instructions: 30000001 cycles: 9591574 heartbeat IPC: 3.12012 cumulative IPC: 3.12775 (Simulation time: 0 hr 7 min 3 sec) 
Heartbeat CPU 0 instructions: 40000003 cycles: 12792618 heartbeat IPC: 3.12398 cumulative IPC: 3.1268 (Simulation time: 0 hr 9 min 23 sec) 
Heartbeat CPU 0 instructions: 50000000 cycles: 16050670 heartbeat IPC: 3.06932 cumulative IPC: 3.11513 (Simulation time: 0 hr 11 min 44 sec) 

Warmup complete CPU 0 instructions: 50000004 cycles: 16050671 (Simulation time: 0 hr 11 min 44 sec) 

Heartbeat CPU 0 instructions: 60000002 cycles: 31714373 heartbeat IPC: 0.638419 cumulative IPC: 0.638419 (Simulation time: 0 hr 15 min 15 sec) 
Heartbeat CPU 0 instructions: 70000003 cycles: 52796362 heartbeat IPC: 0.474339 cumulative IPC: 0.544281 (Simulation time: 0 hr 19 min 59 sec) 
Heartbeat CPU 0 instructions: 80000000 cycles: 59944719 heartbeat IPC: 1.39892 cumulative IPC: 0.683464 (Simulation time: 0 hr 22 min 58 sec) 
Heartbeat CPU 0 instructions: 90000001 cycles: 67220117 heartbeat IPC: 1.3745 cumulative IPC: 0.781716 (Simulation time: 0 hr 25 min 37 sec) 
Heartbeat CPU 0 instructions: 100000003 cycles: 74382089 heartbeat IPC: 1.39626 cumulative IPC: 0.857171 (Simulation time: 0 hr 27 min 52 sec) 
Finished CPU 0 instructions: 50000003 cycles: 58331419 cumulative IPC: 0.857171 (Simulation time: 0 hr 27 min 52 sec) 

ChampSim completed all CPUs

Region of Interest Statistics

CPU 0 cumulative IPC: 0.857171 instructions: 50000003 cycles: 58331419
L1D TOTAL     ACCESS:   21605016  HIT:   17025495  MISS:    4579521
L1D LOAD      ACCESS:    8619208  HIT:    6338860  MISS:    2280348
L1D RFO       ACCESS:    4580112  HIT:    4475710  MISS:     104402
L1D PREFETCH  ACCESS:    8405696  HIT:    6210925  MISS:    2194771
L1D WRITEBACK ACCESS:          0  HIT:          0  MISS:          0
L1D PREFETCH  REQUESTED:    8651566  ISSUED:    8554571  USEFUL:     106303  USELESS:    2088467
L1D AVERAGE MISS LATENCY: 20.4768 cycles
L1I TOTAL     ACCESS:   17734282  HIT:   16122876  MISS:    1611406
L1I LOAD      ACCESS:   10783962  HIT:   10723066  MISS:      60896
L1I RFO       ACCESS:          0  HIT:          0  MISS:          0
L1I PREFETCH  ACCESS:    6950320  HIT:    5399810  MISS:    1550510
L1I WRITEBACK ACCESS:          0  HIT:          0  MISS:          0
L1I PREFETCH  REQUESTED:    7882839  ISSUED:    7205801  USEFUL:    1086673  USELESS:     463810
L1I AVERAGE MISS LATENCY: 31.2572 cycles
L2C TOTAL     ACCESS:    7988347  HIT:    6924535  MISS:    1063812
L2C LOAD      ACCESS:    2299143  HIT:    2076166  MISS:     222977
L2C RFO       ACCESS:     103467  HIT:      63005  MISS:      40462
L2C PREFETCH  ACCESS:    5328884  HIT:    4530114  MISS:     798770
L2C WRITEBACK ACCESS:     256853  HIT:     255250  MISS:       1603
L2C PREFETCH  REQUESTED:    6905541  ISSUED:    6902348  USEFUL:      23676  USELESS:     773953
L2C AVERAGE MISS LATENCY: 47.5035 cycles
LLC TOTAL     ACCESS:    2367837  HIT:    2225533  MISS:     142304
LLC LOAD      ACCESS:     222716  HIT:     201824  MISS:      20892
LLC RFO       ACCESS:      40455  HIT:      31606  MISS:       8849
LLC PREFETCH  ACCESS:    1966896  HIT:    1854566  MISS:     112330
LLC WRITEBACK ACCESS:     137770  HIT:     137537  MISS:        233
LLC PREFETCH  REQUESTED:          0  ISSUED:          0  USEFUL:      11800  USELESS:      98820
LLC AVERAGE MISS LATENCY: 175.475 cycles
Major fault: 0 Minor fault: 6364
CPU 0 L1D next line prefetcher final stats

DRAM Statistics
 CHANNEL 0
 RQ ROW_BUFFER_HIT:      26710  ROW_BUFFER_MISS:     115348
 DBUS_CONGESTED:      59149
 WQ ROW_BUFFER_HIT:       9052  ROW_BUFFER_MISS:      38043  FULL:          0

 AVG_CONGESTED_CYCLE: 5

CPU 0 Branch Prediction Accuracy: 99.4713% MPKI: 1.11484 Average ROB Occupancy at Mispredict: 120.126

Branch types
NOT_BRANCH: 39456615 78.9132%
BRANCH_DIRECT_JUMP: 445350 0.8907%
BRANCH_INDIRECT: 131149 0.262298%
BRANCH_CONDITIONAL: 8130196 16.2604%
BRANCH_DIRECT_CALL: 732485 1.46497%
BRANCH_INDIRECT_CALL: 172369 0.344738%
BRANCH_RETURN: 931558 1.86312%
BRANCH_OTHER: 0 0%

