Initialize SIGNATURE TABLE
ST_SET: 1
ST_WAY: 256
ST_TAG_BIT: 16
ST_TAG_MASK: ffff

Initialize PATTERN TABLE
PT_SET: 512
PT_WAY: 4
SIG_DELTA_BIT: 7
C_SIG_BIT: 4
C_DELTA_BIT: 4

Initialize PREFETCH FILTER
FILTER_SET: 1024

*** ChampSim Multicore Out-of-Order Simulator ***

Warmup Instructions: 50000000
Simulation Instructions: 50000000
Number of CPUs: 1
LLC sets: 2048
LLC ways: 16
Off-chip DRAM Size: 4096 MB Channels: 1 Width: 64-bit Data Rate: 3200 MT/s

CPU 0 runs /home/ykhodke/ChampSim/dpc3_traces/server_002.champsimtrace.xz
LHT KB: 126.25
SCC KB: 1.56
Total KB: 127.81
CPU 0 L1D next line prefetcher
Heartbeat CPU 0 instructions: 10000000 cycles: 3581247 heartbeat IPC: 2.79232 cumulative IPC: 2.79232 (Simulation time: 0 hr 2 min 49 sec) 
Heartbeat CPU 0 instructions: 20000002 cycles: 7170622 heartbeat IPC: 2.786 cumulative IPC: 2.78916 (Simulation time: 0 hr 5 min 40 sec) 
Heartbeat CPU 0 instructions: 30000000 cycles: 10711382 heartbeat IPC: 2.82425 cumulative IPC: 2.80076 (Simulation time: 0 hr 8 min 28 sec) 
Heartbeat CPU 0 instructions: 40000000 cycles: 14261627 heartbeat IPC: 2.81671 cumulative IPC: 2.80473 (Simulation time: 0 hr 11 min 25 sec) 
Heartbeat CPU 0 instructions: 50000001 cycles: 17809398 heartbeat IPC: 2.81867 cumulative IPC: 2.80751 (Simulation time: 0 hr 14 min 16 sec) 

Warmup complete CPU 0 instructions: 50000001 cycles: 17809398 (Simulation time: 0 hr 14 min 16 sec) 

Heartbeat CPU 0 instructions: 60000000 cycles: 24248728 heartbeat IPC: 1.55296 cumulative IPC: 1.55296 (Simulation time: 0 hr 17 min 17 sec) 
Heartbeat CPU 0 instructions: 70000003 cycles: 30685488 heartbeat IPC: 1.55358 cumulative IPC: 1.55327 (Simulation time: 0 hr 20 min 17 sec) 
Heartbeat CPU 0 instructions: 80000003 cycles: 37124851 heartbeat IPC: 1.55295 cumulative IPC: 1.55316 (Simulation time: 0 hr 23 min 17 sec) 
Heartbeat CPU 0 instructions: 90000002 cycles: 43562119 heartbeat IPC: 1.55345 cumulative IPC: 1.55323 (Simulation time: 0 hr 26 min 7 sec) 
Heartbeat CPU 0 instructions: 100000003 cycles: 49997937 heartbeat IPC: 1.5538 cumulative IPC: 1.55335 (Simulation time: 0 hr 28 min 29 sec) 
Finished CPU 0 instructions: 50000002 cycles: 32188539 cumulative IPC: 1.55335 (Simulation time: 0 hr 28 min 29 sec) 

ChampSim completed all CPUs

Region of Interest Statistics

CPU 0 cumulative IPC: 1.55335 instructions: 50000002 cycles: 32188539
L1D TOTAL     ACCESS:   21525545  HIT:   21524736  MISS:        809
L1D LOAD      ACCESS:    6602462  HIT:    6602086  MISS:        376
L1D RFO       ACCESS:    8433005  HIT:    8432893  MISS:        112
L1D PREFETCH  ACCESS:    6490078  HIT:    6489757  MISS:        321
L1D WRITEBACK ACCESS:          0  HIT:          0  MISS:          0
L1D PREFETCH  REQUESTED:    6602516  ISSUED:    6497473  USEFUL:         91  USELESS:        231
L1D AVERAGE MISS LATENCY: 35.3597 cycles
L1I TOTAL     ACCESS:   29092066  HIT:   28154062  MISS:     938004
L1I LOAD      ACCESS:    9821532  HIT:    9754406  MISS:      67126
L1I RFO       ACCESS:          0  HIT:          0  MISS:          0
L1I PREFETCH  ACCESS:   19270534  HIT:   18399656  MISS:     870878
L1I WRITEBACK ACCESS:          0  HIT:          0  MISS:          0
L1I PREFETCH  REQUESTED:   21240742  ISSUED:   21240742  USEFUL:     724999  USELESS:     145856
L1I AVERAGE MISS LATENCY: 13.0948 cycles
L2C TOTAL     ACCESS:    1049637  HIT:    1049341  MISS:        296
L2C LOAD      ACCESS:       3543  HIT:       3475  MISS:         68
L2C RFO       ACCESS:        112  HIT:        107  MISS:          5
L2C PREFETCH  ACCESS:    1045646  HIT:    1045424  MISS:        222
L2C WRITEBACK ACCESS:        336  HIT:        335  MISS:          1
L2C PREFETCH  REQUESTED:     196041  ISSUED:     196041  USEFUL:         55  USELESS:        156
L2C AVERAGE MISS LATENCY: 76.1655 cycles
LLC TOTAL     ACCESS:      59922  HIT:      59423  MISS:        499
LLC LOAD      ACCESS:         68  HIT:         53  MISS:         15
LLC RFO       ACCESS:          5  HIT:          4  MISS:          1
LLC PREFETCH  ACCESS:      59784  HIT:      59301  MISS:        483
LLC WRITEBACK ACCESS:         65  HIT:         65  MISS:          0
LLC PREFETCH  REQUESTED:          0  ISSUED:          0  USEFUL:          5  USELESS:        145
LLC AVERAGE MISS LATENCY: 191.238 cycles
Major fault: 0 Minor fault: 1880
CPU 0 L1D next line prefetcher final stats

DRAM Statistics
 CHANNEL 0
 RQ ROW_BUFFER_HIT:         45  ROW_BUFFER_MISS:        454
 DBUS_CONGESTED:        181
 WQ ROW_BUFFER_HIT:         55  ROW_BUFFER_MISS:        272  FULL:          0

 AVG_CONGESTED_CYCLE: 5

CPU 0 Branch Prediction Accuracy: 99.8789% MPKI: 0.20388 Average ROB Occupancy at Mispredict: 279.608

Branch types
NOT_BRANCH: 41580695 83.1614%
BRANCH_DIRECT_JUMP: 461630 0.92326%
BRANCH_INDIRECT: 0 0%
BRANCH_CONDITIONAL: 5376437 10.7529%
BRANCH_DIRECT_CALL: 1175775 2.35155%
BRANCH_INDIRECT_CALL: 114840 0.22968%
BRANCH_RETURN: 1290625 2.58125%
BRANCH_OTHER: 0 0%

