Initialize SIGNATURE TABLE
ST_SET: 1
ST_WAY: 256
ST_TAG_BIT: 16
ST_TAG_MASK: ffff

Initialize PATTERN TABLE
PT_SET: 512
PT_WAY: 4
SIG_DELTA_BIT: 7
C_SIG_BIT: 4
C_DELTA_BIT: 4

Initialize PREFETCH FILTER
FILTER_SET: 1024

*** ChampSim Multicore Out-of-Order Simulator ***

Warmup Instructions: 50000000
Simulation Instructions: 50000000
Number of CPUs: 1
LLC sets: 2048
LLC ways: 16
Off-chip DRAM Size: 4096 MB Channels: 1 Width: 64-bit Data Rate: 3200 MT/s

CPU 0 runs /home/ykhodke/ChampSim/dpc3_traces/server_037.champsimtrace.xz
L1I D-JOLT instruction prefetcher has been constructed!
CPU 0 L1D next line prefetcher
Heartbeat CPU 0 instructions: 10000001 cycles: 3319764 heartbeat IPC: 3.01226 cumulative IPC: 3.01226 (Simulation time: 0 hr 3 min 42 sec) 
Heartbeat CPU 0 instructions: 20000002 cycles: 6636980 heartbeat IPC: 3.01458 cumulative IPC: 3.01342 (Simulation time: 0 hr 7 min 33 sec) 
Heartbeat CPU 0 instructions: 30000003 cycles: 10002055 heartbeat IPC: 2.9717 cumulative IPC: 2.99938 (Simulation time: 0 hr 11 min 35 sec) 
Heartbeat CPU 0 instructions: 40000000 cycles: 13320916 heartbeat IPC: 3.01308 cumulative IPC: 3.0028 (Simulation time: 0 hr 15 min 29 sec) 
Heartbeat CPU 0 instructions: 50000003 cycles: 16639428 heartbeat IPC: 3.0134 cumulative IPC: 3.00491 (Simulation time: 0 hr 18 min 42 sec) 

Warmup complete CPU 0 instructions: 50000003 cycles: 16639428 (Simulation time: 0 hr 18 min 42 sec) 

Heartbeat CPU 0 instructions: 60000001 cycles: 23036411 heartbeat IPC: 1.56324 cumulative IPC: 1.56324 (Simulation time: 0 hr 21 min 53 sec) 
Heartbeat CPU 0 instructions: 70000000 cycles: 29525864 heartbeat IPC: 1.54096 cumulative IPC: 1.55202 (Simulation time: 0 hr 25 min 15 sec) 
Heartbeat CPU 0 instructions: 80000000 cycles: 35920262 heartbeat IPC: 1.56387 cumulative IPC: 1.55595 (Simulation time: 0 hr 28 min 18 sec) 
Heartbeat CPU 0 instructions: 90000002 cycles: 42336863 heartbeat IPC: 1.55846 cumulative IPC: 1.55658 (Simulation time: 0 hr 30 min 12 sec) 
*** Reached end of trace for Core: 0 Repeating trace: /home/ykhodke/ChampSim/dpc3_traces/server_037.champsimtrace.xz
Heartbeat CPU 0 instructions: 100000000 cycles: 48740214 heartbeat IPC: 1.56168 cumulative IPC: 1.55759 (Simulation time: 0 hr 31 min 7 sec) 
Finished CPU 0 instructions: 50000001 cycles: 32100787 cumulative IPC: 1.55759 (Simulation time: 0 hr 31 min 7 sec) 

ChampSim completed all CPUs

Region of Interest Statistics

CPU 0 cumulative IPC: 1.55759 instructions: 50000001 cycles: 32100787
L1D TOTAL     ACCESS:   18681657  HIT:   17703752  MISS:     977905
L1D LOAD      ACCESS:    6356997  HIT:    5865500  MISS:     491497
L1D RFO       ACCESS:    6205092  HIT:    6141009  MISS:      64083
L1D PREFETCH  ACCESS:    6119568  HIT:    5697243  MISS:     422325
L1D WRITEBACK ACCESS:          0  HIT:          0  MISS:          0
L1D PREFETCH  REQUESTED:    6394691  ISSUED:    6241613  USEFUL:     117280  USELESS:     305049
L1D AVERAGE MISS LATENCY: 29.5212 cycles
L1I TOTAL     ACCESS:   20540991  HIT:   15392559  MISS:    5148432
L1I LOAD      ACCESS:    9499768  HIT:    9465439  MISS:      34329
L1I RFO       ACCESS:          0  HIT:          0  MISS:          0
L1I PREFETCH  ACCESS:   11041223  HIT:    5927120  MISS:    5114103
L1I WRITEBACK ACCESS:          0  HIT:          0  MISS:          0
L1I PREFETCH  REQUESTED:   11610996  ISSUED:   11539470  USEFUL:    4112300  USELESS:    1001823
L1I AVERAGE MISS LATENCY: 14.7371 cycles
L2C TOTAL     ACCESS:    8940812  HIT:    8619596  MISS:     321216
L2C LOAD      ACCESS:     520842  HIT:     377270  MISS:     143572
L2C RFO       ACCESS:      63798  HIT:      35875  MISS:      27923
L2C PREFETCH  ACCESS:    8066589  HIT:    7918399  MISS:     148190
L2C WRITEBACK ACCESS:     289583  HIT:     288052  MISS:       1531
L2C PREFETCH  REQUESTED:    6678698  ISSUED:    6664592  USEFUL:       7135  USELESS:     140929
L2C AVERAGE MISS LATENCY: 45.268 cycles
LLC TOTAL     ACCESS:    1757922  HIT:    1703390  MISS:      54532
LLC LOAD      ACCESS:     143541  HIT:     130283  MISS:      13258
LLC RFO       ACCESS:      27922  HIT:      23237  MISS:       4685
LLC PREFETCH  ACCESS:    1441244  HIT:    1405139  MISS:      36105
LLC WRITEBACK ACCESS:     145215  HIT:     144731  MISS:        484
LLC PREFETCH  REQUESTED:          0  ISSUED:          0  USEFUL:       3463  USELESS:      32600
LLC AVERAGE MISS LATENCY: 165.969 cycles
Major fault: 0 Minor fault: 5654
CPU 0 L1D next line prefetcher final stats

DRAM Statistics
 CHANNEL 0
 RQ ROW_BUFFER_HIT:       8340  ROW_BUFFER_MISS:      45708
 DBUS_CONGESTED:      23545
 WQ ROW_BUFFER_HIT:       1227  ROW_BUFFER_MISS:      10536  FULL:          0

 AVG_CONGESTED_CYCLE: 5

CPU 0 Branch Prediction Accuracy: 99.913% MPKI: 0.15656 Average ROB Occupancy at Mispredict: 229.379

Branch types
NOT_BRANCH: 41001734 82.0035%
BRANCH_DIRECT_JUMP: 541941 1.08388%
BRANCH_INDIRECT: 59716 0.119432%
BRANCH_CONDITIONAL: 5916856 11.8337%
BRANCH_DIRECT_CALL: 1005465 2.01093%
BRANCH_INDIRECT_CALL: 234433 0.468866%
BRANCH_RETURN: 1239878 2.47976%
BRANCH_OTHER: 0 0%

