Initialize SIGNATURE TABLE
ST_SET: 1
ST_WAY: 256
ST_TAG_BIT: 16
ST_TAG_MASK: ffff

Initialize PATTERN TABLE
PT_SET: 512
PT_WAY: 4
SIG_DELTA_BIT: 7
C_SIG_BIT: 4
C_DELTA_BIT: 4

Initialize PREFETCH FILTER
FILTER_SET: 1024

*** ChampSim Multicore Out-of-Order Simulator ***

Warmup Instructions: 50000000
Simulation Instructions: 50000000
Number of CPUs: 1
LLC sets: 2048
LLC ways: 16
Off-chip DRAM Size: 4096 MB Channels: 1 Width: 64-bit Data Rate: 3200 MT/s

CPU 0 runs /home/ykhodke/ChampSim/dpc3_traces/server_032.champsimtrace.xz
LHT KB: 63.12
SCC KB: 1.56
Total KB: 64.69
CPU 0 L1D next line prefetcher
Heartbeat CPU 0 instructions: 10000002 cycles: 3529628 heartbeat IPC: 2.83316 cumulative IPC: 2.83316 (Simulation time: 0 hr 3 min 19 sec) 
Heartbeat CPU 0 instructions: 20000003 cycles: 7060027 heartbeat IPC: 2.83254 cumulative IPC: 2.83285 (Simulation time: 0 hr 6 min 15 sec) 
Heartbeat CPU 0 instructions: 30000000 cycles: 10590089 heartbeat IPC: 2.83281 cumulative IPC: 2.83284 (Simulation time: 0 hr 9 min 10 sec) 
Heartbeat CPU 0 instructions: 40000003 cycles: 14121167 heartbeat IPC: 2.832 cumulative IPC: 2.83263 (Simulation time: 0 hr 12 min 5 sec) 
Heartbeat CPU 0 instructions: 50000000 cycles: 17650942 heartbeat IPC: 2.83304 cumulative IPC: 2.83271 (Simulation time: 0 hr 14 min 57 sec) 

Warmup complete CPU 0 instructions: 50000004 cycles: 17650943 (Simulation time: 0 hr 14 min 57 sec) 

Heartbeat CPU 0 instructions: 60000002 cycles: 24443555 heartbeat IPC: 1.47219 cumulative IPC: 1.47219 (Simulation time: 0 hr 18 min 9 sec) 
Heartbeat CPU 0 instructions: 70000002 cycles: 31232189 heartbeat IPC: 1.47305 cumulative IPC: 1.47262 (Simulation time: 0 hr 21 min 46 sec) 
*** Reached end of trace for Core: 0 Repeating trace: /home/ykhodke/ChampSim/dpc3_traces/server_032.champsimtrace.xz
Heartbeat CPU 0 instructions: 80000003 cycles: 38018714 heartbeat IPC: 1.47351 cumulative IPC: 1.47292 (Simulation time: 0 hr 25 min 17 sec) 
Heartbeat CPU 0 instructions: 90000002 cycles: 44765594 heartbeat IPC: 1.48217 cumulative IPC: 1.47522 (Simulation time: 0 hr 27 min 58 sec) 
Heartbeat CPU 0 instructions: 100000001 cycles: 51525035 heartbeat IPC: 1.47941 cumulative IPC: 1.47605 (Simulation time: 0 hr 29 min 29 sec) 
Finished CPU 0 instructions: 50000002 cycles: 33874094 cumulative IPC: 1.47605 (Simulation time: 0 hr 29 min 29 sec) 

ChampSim completed all CPUs

Region of Interest Statistics

CPU 0 cumulative IPC: 1.47605 instructions: 50000002 cycles: 33874094
L1D TOTAL     ACCESS:   19912928  HIT:   18084638  MISS:    1828290
L1D LOAD      ACCESS:    6813865  HIT:    6019690  MISS:     794175
L1D RFO       ACCESS:    6561757  HIT:    6266441  MISS:     295316
L1D PREFETCH  ACCESS:    6537306  HIT:    5798507  MISS:     738799
L1D WRITEBACK ACCESS:          0  HIT:          0  MISS:          0
L1D PREFETCH  REQUESTED:    6862254  ISSUED:    6728815  USEFUL:     169142  USELESS:     569656
L1D AVERAGE MISS LATENCY: 18.4855 cycles
L1I TOTAL     ACCESS:   25742879  HIT:   20404610  MISS:    5338269
L1I LOAD      ACCESS:    9546839  HIT:    8985195  MISS:     561644
L1I RFO       ACCESS:          0  HIT:          0  MISS:          0
L1I PREFETCH  ACCESS:   16196040  HIT:   11419415  MISS:    4776625
L1I WRITEBACK ACCESS:          0  HIT:          0  MISS:          0
L1I PREFETCH  REQUESTED:   19423262  ISSUED:   19423262  USEFUL:    2780478  USELESS:    1996131
L1I AVERAGE MISS LATENCY: 14.4324 cycles
L2C TOTAL     ACCESS:   10149620  HIT:    9703425  MISS:     446195
L2C LOAD      ACCESS:     870191  HIT:     772068  MISS:      98123
L2C RFO       ACCESS:     292719  HIT:     267991  MISS:      24728
L2C PREFETCH  ACCESS:    8350303  HIT:    8028565  MISS:     321738
L2C WRITEBACK ACCESS:     636407  HIT:     634801  MISS:       1606
L2C PREFETCH  REQUESTED:    5373295  ISSUED:    5365068  USEFUL:       7730  USELESS:     313918
L2C AVERAGE MISS LATENCY: 32.2957 cycles
LLC TOTAL     ACCESS:    1497346  HIT:    1491948  MISS:       5398
LLC LOAD      ACCESS:      98123  HIT:      97695  MISS:        428
LLC RFO       ACCESS:      24728  HIT:      24727  MISS:          1
LLC PREFETCH  ACCESS:    1306831  HIT:    1301871  MISS:       4960
LLC WRITEBACK ACCESS:      67664  HIT:      67655  MISS:          9
LLC PREFETCH  REQUESTED:          0  ISSUED:          0  USEFUL:        353  USELESS:       1658
LLC AVERAGE MISS LATENCY: 149.37 cycles
Major fault: 0 Minor fault: 1190
CPU 0 L1D next line prefetcher final stats

DRAM Statistics
 CHANNEL 0
 RQ ROW_BUFFER_HIT:       1433  ROW_BUFFER_MISS:       3956
 DBUS_CONGESTED:        501
 WQ ROW_BUFFER_HIT:          0  ROW_BUFFER_MISS:         23  FULL:          0

 AVG_CONGESTED_CYCLE: 4

CPU 0 Branch Prediction Accuracy: 99.8762% MPKI: 0.2296 Average ROB Occupancy at Mispredict: 189.946

Branch types
NOT_BRANCH: 40726118 81.4522%
BRANCH_DIRECT_JUMP: 508373 1.01675%
BRANCH_INDIRECT: 180051 0.360102%
BRANCH_CONDITIONAL: 5999655 11.9993%
BRANCH_DIRECT_CALL: 1086739 2.17348%
BRANCH_INDIRECT_CALL: 206109 0.412218%
BRANCH_RETURN: 1292836 2.58567%
BRANCH_OTHER: 0 0%

