Initialize SIGNATURE TABLE
ST_SET: 1
ST_WAY: 256
ST_TAG_BIT: 16
ST_TAG_MASK: ffff

Initialize PATTERN TABLE
PT_SET: 512
PT_WAY: 4
SIG_DELTA_BIT: 7
C_SIG_BIT: 4
C_DELTA_BIT: 4

Initialize PREFETCH FILTER
FILTER_SET: 1024

*** ChampSim Multicore Out-of-Order Simulator ***

Warmup Instructions: 50000000
Simulation Instructions: 50000000
Number of CPUs: 1
LLC sets: 2048
LLC ways: 16
Off-chip DRAM Size: 4096 MB Channels: 1 Width: 64-bit Data Rate: 3200 MT/s

CPU 0 runs /home/ykhodke/ChampSim/dpc3_traces/server_030.champsimtrace.xz
L1I D-JOLT instruction prefetcher has been constructed!
CPU 0 L1D next line prefetcher
Heartbeat CPU 0 instructions: 10000003 cycles: 3503286 heartbeat IPC: 2.85446 cumulative IPC: 2.85446 (Simulation time: 0 hr 3 min 8 sec) 
Heartbeat CPU 0 instructions: 20000003 cycles: 7005919 heartbeat IPC: 2.855 cumulative IPC: 2.85473 (Simulation time: 0 hr 6 min 14 sec) 
Heartbeat CPU 0 instructions: 30000000 cycles: 10507813 heartbeat IPC: 2.8556 cumulative IPC: 2.85502 (Simulation time: 0 hr 9 min 48 sec) 
Heartbeat CPU 0 instructions: 40000002 cycles: 14009520 heartbeat IPC: 2.85575 cumulative IPC: 2.8552 (Simulation time: 0 hr 12 min 57 sec) 
Heartbeat CPU 0 instructions: 50000002 cycles: 17514064 heartbeat IPC: 2.85344 cumulative IPC: 2.85485 (Simulation time: 0 hr 15 min 52 sec) 

Warmup complete CPU 0 instructions: 50000002 cycles: 17514064 (Simulation time: 0 hr 15 min 52 sec) 

Heartbeat CPU 0 instructions: 60000002 cycles: 24565684 heartbeat IPC: 1.41811 cumulative IPC: 1.41811 (Simulation time: 0 hr 18 min 48 sec) 
Heartbeat CPU 0 instructions: 70000000 cycles: 31610930 heartbeat IPC: 1.4194 cumulative IPC: 1.41875 (Simulation time: 0 hr 21 min 46 sec) 
Heartbeat CPU 0 instructions: 80000001 cycles: 38653466 heartbeat IPC: 1.41994 cumulative IPC: 1.41915 (Simulation time: 0 hr 24 min 41 sec) 
*** Reached end of trace for Core: 0 Repeating trace: /home/ykhodke/ChampSim/dpc3_traces/server_030.champsimtrace.xz
Heartbeat CPU 0 instructions: 90000002 cycles: 45701193 heartbeat IPC: 1.4189 cumulative IPC: 1.41909 (Simulation time: 0 hr 26 min 53 sec) 
Heartbeat CPU 0 instructions: 100000002 cycles: 52743183 heartbeat IPC: 1.42005 cumulative IPC: 1.41928 (Simulation time: 0 hr 28 min 15 sec) 
Finished CPU 0 instructions: 50000000 cycles: 35229119 cumulative IPC: 1.41928 (Simulation time: 0 hr 28 min 15 sec) 

ChampSim completed all CPUs

Region of Interest Statistics

CPU 0 cumulative IPC: 1.41928 instructions: 50000000 cycles: 35229119
L1D TOTAL     ACCESS:   19147739  HIT:   17071857  MISS:    2075882
L1D LOAD      ACCESS:    6762313  HIT:    5708531  MISS:    1053782
L1D RFO       ACCESS:    6170487  HIT:    5883899  MISS:     286588
L1D PREFETCH  ACCESS:    6214939  HIT:    5479427  MISS:     735512
L1D WRITEBACK ACCESS:          0  HIT:          0  MISS:          0
L1D PREFETCH  REQUESTED:    6815658  ISSUED:    6681408  USEFUL:     180106  USELESS:     555499
L1D AVERAGE MISS LATENCY: 19.0445 cycles
L1I TOTAL     ACCESS:   15072346  HIT:   11742604  MISS:    3329742
L1I LOAD      ACCESS:    9813852  HIT:    9780167  MISS:      33685
L1I RFO       ACCESS:          0  HIT:          0  MISS:          0
L1I PREFETCH  ACCESS:    5258494  HIT:    1962437  MISS:    3296057
L1I WRITEBACK ACCESS:          0  HIT:          0  MISS:          0
L1I PREFETCH  REQUESTED:    5491169  ISSUED:    5457070  USEFUL:    2946265  USELESS:     349810
L1I AVERAGE MISS LATENCY: 19.5335 cycles
L2C TOTAL     ACCESS:    7717972  HIT:    6864678  MISS:     853294
L2C LOAD      ACCESS:     911657  HIT:     774100  MISS:     137557
L2C RFO       ACCESS:     283594  HIT:     223497  MISS:      60097
L2C PREFETCH  ACCESS:    5907186  HIT:    5256202  MISS:     650984
L2C WRITEBACK ACCESS:     615535  HIT:     610879  MISS:       4656
L2C PREFETCH  REQUESTED:    5409637  ISSUED:    5401120  USEFUL:      10869  USELESS:     640048
L2C AVERAGE MISS LATENCY: 33.7236 cycles
LLC TOTAL     ACCESS:    2393237  HIT:    2369072  MISS:      24165
LLC LOAD      ACCESS:     137312  HIT:     134281  MISS:       3031
LLC RFO       ACCESS:      60018  HIT:      58204  MISS:       1814
LLC PREFETCH  ACCESS:    2080157  HIT:    2060951  MISS:      19206
LLC WRITEBACK ACCESS:     115750  HIT:     115636  MISS:        114
LLC PREFETCH  REQUESTED:          0  ISSUED:          0  USEFUL:        896  USELESS:      16734
LLC AVERAGE MISS LATENCY: 150.025 cycles
Major fault: 0 Minor fault: 2043
CPU 0 L1D next line prefetcher final stats

DRAM Statistics
 CHANNEL 0
 RQ ROW_BUFFER_HIT:       6866  ROW_BUFFER_MISS:      17185
 DBUS_CONGESTED:       6651
 WQ ROW_BUFFER_HIT:        212  ROW_BUFFER_MISS:       2743  FULL:          0

 AVG_CONGESTED_CYCLE: 5

CPU 0 Branch Prediction Accuracy: 99.8445% MPKI: 0.29148 Average ROB Occupancy at Mispredict: 173.165

Branch types
NOT_BRANCH: 40628075 81.2562%
BRANCH_DIRECT_JUMP: 490941 0.981882%
BRANCH_INDIRECT: 175854 0.351708%
BRANCH_CONDITIONAL: 6321415 12.6428%
BRANCH_DIRECT_CALL: 1002072 2.00414%
BRANCH_INDIRECT_CALL: 189783 0.379566%
BRANCH_RETURN: 1191851 2.3837%
BRANCH_OTHER: 0 0%

