Initialize SIGNATURE TABLE
ST_SET: 1
ST_WAY: 256
ST_TAG_BIT: 16
ST_TAG_MASK: ffff

Initialize PATTERN TABLE
PT_SET: 512
PT_WAY: 4
SIG_DELTA_BIT: 7
C_SIG_BIT: 4
C_DELTA_BIT: 4

Initialize PREFETCH FILTER
FILTER_SET: 1024

*** ChampSim Multicore Out-of-Order Simulator ***

Warmup Instructions: 50000000
Simulation Instructions: 50000000
Number of CPUs: 1
LLC sets: 2048
LLC ways: 16
Off-chip DRAM Size: 4096 MB Channels: 1 Width: 64-bit Data Rate: 3200 MT/s

CPU 0 runs /home/ykhodke/ChampSim/dpc3_traces/server_017.champsimtrace.xz
L1I D-JOLT instruction prefetcher has been constructed!
CPU 0 L1D next line prefetcher
Heartbeat CPU 0 instructions: 10000001 cycles: 3622799 heartbeat IPC: 2.7603 cumulative IPC: 2.7603 (Simulation time: 0 hr 3 min 53 sec) 
Heartbeat CPU 0 instructions: 20000000 cycles: 7243432 heartbeat IPC: 2.76195 cumulative IPC: 2.76112 (Simulation time: 0 hr 7 min 23 sec) 
Heartbeat CPU 0 instructions: 30000002 cycles: 10870756 heartbeat IPC: 2.75685 cumulative IPC: 2.7597 (Simulation time: 0 hr 10 min 42 sec) 
Heartbeat CPU 0 instructions: 40000000 cycles: 14493554 heartbeat IPC: 2.7603 cumulative IPC: 2.75985 (Simulation time: 0 hr 14 min 17 sec) 
Heartbeat CPU 0 instructions: 50000001 cycles: 18127451 heartbeat IPC: 2.75187 cumulative IPC: 2.75825 (Simulation time: 0 hr 17 min 59 sec) 

Warmup complete CPU 0 instructions: 50000001 cycles: 18127451 (Simulation time: 0 hr 17 min 59 sec) 

Heartbeat CPU 0 instructions: 60000002 cycles: 35515059 heartbeat IPC: 0.575122 cumulative IPC: 0.575122 (Simulation time: 0 hr 22 min 19 sec) 
Heartbeat CPU 0 instructions: 70000002 cycles: 53066891 heartbeat IPC: 0.569741 cumulative IPC: 0.572419 (Simulation time: 0 hr 26 min 17 sec) 
Heartbeat CPU 0 instructions: 80000000 cycles: 70365172 heartbeat IPC: 0.578092 cumulative IPC: 0.574298 (Simulation time: 0 hr 29 min 45 sec) 
Heartbeat CPU 0 instructions: 90000002 cycles: 93522800 heartbeat IPC: 0.431823 cumulative IPC: 0.530537 (Simulation time: 0 hr 31 min 32 sec) 
Heartbeat CPU 0 instructions: 100000003 cycles: 113444310 heartbeat IPC: 0.50197 cumulative IPC: 0.524566 (Simulation time: 0 hr 32 min 12 sec) 
Finished CPU 0 instructions: 50000002 cycles: 95316859 cumulative IPC: 0.524566 (Simulation time: 0 hr 32 min 12 sec) 

ChampSim completed all CPUs

Region of Interest Statistics

CPU 0 cumulative IPC: 0.524566 instructions: 50000002 cycles: 95316859
L1D TOTAL     ACCESS:   18371984  HIT:   16206415  MISS:    2165569
L1D LOAD      ACCESS:    7024550  HIT:    6280797  MISS:     743753
L1D RFO       ACCESS:    5512728  HIT:    4653465  MISS:     859263
L1D PREFETCH  ACCESS:    5834706  HIT:    5272153  MISS:     562553
L1D WRITEBACK ACCESS:          0  HIT:          0  MISS:          0
L1D PREFETCH  REQUESTED:    7061606  ISSUED:    6871947  USEFUL:     200212  USELESS:     362402
L1D AVERAGE MISS LATENCY: 177.066 cycles
L1I TOTAL     ACCESS:   17579149  HIT:   14534473  MISS:    3044676
L1I LOAD      ACCESS:    9911561  HIT:    9875177  MISS:      36384
L1I RFO       ACCESS:          0  HIT:          0  MISS:          0
L1I PREFETCH  ACCESS:    7667588  HIT:    4659296  MISS:    3008292
L1I WRITEBACK ACCESS:          0  HIT:          0  MISS:          0
L1I PREFETCH  REQUESTED:    8237577  ISSUED:    8197784  USEFUL:    2453238  USELESS:     555053
L1I AVERAGE MISS LATENCY: 18.2066 cycles
L2C TOTAL     ACCESS:    7645332  HIT:    5800914  MISS:    1844418
L2C LOAD      ACCESS:     571372  HIT:     241530  MISS:     329842
L2C RFO       ACCESS:     858698  HIT:      17737  MISS:     840961
L2C PREFETCH  ACCESS:    5092375  HIT:    4420782  MISS:     671593
L2C WRITEBACK ACCESS:    1122887  HIT:    1120865  MISS:       2022
L2C PREFETCH  REQUESTED:    4695134  ISSUED:    4691753  USEFUL:      20925  USELESS:     651344
L2C AVERAGE MISS LATENCY: 211.691 cycles
LLC TOTAL     ACCESS:    4186353  HIT:    2646556  MISS:    1539797
LLC LOAD      ACCESS:     329747  HIT:     174221  MISS:     155526
LLC RFO       ACCESS:     840959  HIT:     122029  MISS:     718930
LLC PREFETCH  ACCESS:    1953785  HIT:    1290616  MISS:     663169
LLC WRITEBACK ACCESS:    1061862  HIT:    1059690  MISS:       2172
LLC PREFETCH  REQUESTED:          0  ISSUED:          0  USEFUL:      48676  USELESS:     613258
LLC AVERAGE MISS LATENCY: 270.515 cycles
Major fault: 0 Minor fault: 24698
CPU 0 L1D next line prefetcher final stats

DRAM Statistics
 CHANNEL 0
 RQ ROW_BUFFER_HIT:     377170  ROW_BUFFER_MISS:    1160270
 DBUS_CONGESTED:    1487030
 WQ ROW_BUFFER_HIT:     244657  ROW_BUFFER_MISS:     633927  FULL:          0

 AVG_CONGESTED_CYCLE: 6

CPU 0 Branch Prediction Accuracy: 99.2833% MPKI: 1.20568 Average ROB Occupancy at Mispredict: 182.379

Branch types
NOT_BRANCH: 41588346 83.1767%
BRANCH_DIRECT_JUMP: 464501 0.929002%
BRANCH_INDIRECT: 45704 0.091408%
BRANCH_CONDITIONAL: 6147408 12.2948%
BRANCH_DIRECT_CALL: 675450 1.3509%
BRANCH_INDIRECT_CALL: 201532 0.403064%
BRANCH_RETURN: 876985 1.75397%
BRANCH_OTHER: 0 0%

