Initialize SIGNATURE TABLE
ST_SET: 1
ST_WAY: 256
ST_TAG_BIT: 16
ST_TAG_MASK: ffff

Initialize PATTERN TABLE
PT_SET: 512
PT_WAY: 4
SIG_DELTA_BIT: 7
C_SIG_BIT: 4
C_DELTA_BIT: 4

Initialize PREFETCH FILTER
FILTER_SET: 1024

*** ChampSim Multicore Out-of-Order Simulator ***

Warmup Instructions: 50000000
Simulation Instructions: 50000000
Number of CPUs: 1
LLC sets: 2048
LLC ways: 16
Off-chip DRAM Size: 4096 MB Channels: 1 Width: 64-bit Data Rate: 3200 MT/s

CPU 0 runs /home/ykhodke/ChampSim/dpc3_traces/server_009.champsimtrace.xz
L1I D-JOLT instruction prefetcher has been constructed!
CPU 0 L1D next line prefetcher
Heartbeat CPU 0 instructions: 10000003 cycles: 3195737 heartbeat IPC: 3.12917 cumulative IPC: 3.12917 (Simulation time: 0 hr 2 min 47 sec) 
Heartbeat CPU 0 instructions: 20000001 cycles: 6384457 heartbeat IPC: 3.13605 cumulative IPC: 3.13261 (Simulation time: 0 hr 6 min 40 sec) 
Heartbeat CPU 0 instructions: 30000002 cycles: 9588582 heartbeat IPC: 3.12098 cumulative IPC: 3.12872 (Simulation time: 0 hr 9 min 53 sec) 
Heartbeat CPU 0 instructions: 40000003 cycles: 12788485 heartbeat IPC: 3.1251 cumulative IPC: 3.12781 (Simulation time: 0 hr 12 min 57 sec) 
Heartbeat CPU 0 instructions: 50000000 cycles: 16045300 heartbeat IPC: 3.07048 cumulative IPC: 3.11618 (Simulation time: 0 hr 15 min 40 sec) 

Warmup complete CPU 0 instructions: 50000004 cycles: 16045301 (Simulation time: 0 hr 15 min 40 sec) 

Heartbeat CPU 0 instructions: 60000002 cycles: 31752791 heartbeat IPC: 0.636639 cumulative IPC: 0.636639 (Simulation time: 0 hr 19 min 21 sec) 
Heartbeat CPU 0 instructions: 70000003 cycles: 52834221 heartbeat IPC: 0.474351 cumulative IPC: 0.543642 (Simulation time: 0 hr 23 min 41 sec) 
Heartbeat CPU 0 instructions: 80000000 cycles: 59986066 heartbeat IPC: 1.39824 cumulative IPC: 0.682737 (Simulation time: 0 hr 26 min 6 sec) 
Heartbeat CPU 0 instructions: 90000001 cycles: 67285312 heartbeat IPC: 1.37 cumulative IPC: 0.78064 (Simulation time: 0 hr 27 min 55 sec) 
Heartbeat CPU 0 instructions: 100000003 cycles: 74464228 heartbeat IPC: 1.39297 cumulative IPC: 0.855887 (Simulation time: 0 hr 29 min 4 sec) 
Finished CPU 0 instructions: 50000003 cycles: 58418928 cumulative IPC: 0.855887 (Simulation time: 0 hr 29 min 4 sec) 

ChampSim completed all CPUs

Region of Interest Statistics

CPU 0 cumulative IPC: 0.855887 instructions: 50000003 cycles: 58418928
L1D TOTAL     ACCESS:   21617753  HIT:   17038188  MISS:    4579565
L1D LOAD      ACCESS:    8625262  HIT:    6344948  MISS:    2280314
L1D RFO       ACCESS:    4580479  HIT:    4475991  MISS:     104488
L1D PREFETCH  ACCESS:    8412012  HIT:    6217249  MISS:    2194763
L1D WRITEBACK ACCESS:          0  HIT:          0  MISS:          0
L1D PREFETCH  REQUESTED:    8657933  ISSUED:    8560908  USEFUL:     106278  USELESS:    2088484
L1D AVERAGE MISS LATENCY: 20.3387 cycles
L1I TOTAL     ACCESS:   16503655  HIT:   15123637  MISS:    1380018
L1I LOAD      ACCESS:   10763827  HIT:   10675070  MISS:      88757
L1I RFO       ACCESS:          0  HIT:          0  MISS:          0
L1I PREFETCH  ACCESS:    5739828  HIT:    4448567  MISS:    1291261
L1I WRITEBACK ACCESS:          0  HIT:          0  MISS:          0
L1I PREFETCH  REQUESTED:    6225836  ISSUED:    6038580  USEFUL:    1017251  USELESS:     273997
L1I AVERAGE MISS LATENCY: 32.1183 cycles
L2C TOTAL     ACCESS:    7652011  HIT:    6606350  MISS:    1045661
L2C LOAD      ACCESS:    2296814  HIT:    2076962  MISS:     219852
L2C RFO       ACCESS:     103487  HIT:      63411  MISS:      40076
L2C PREFETCH  ACCESS:    4994847  HIT:    4210148  MISS:     784699
L2C WRITEBACK ACCESS:     256863  HIT:     255829  MISS:       1034
L2C PREFETCH  REQUESTED:    6430498  ISSUED:    6428618  USEFUL:      21437  USELESS:     762192
L2C AVERAGE MISS LATENCY: 47.0316 cycles
LLC TOTAL     ACCESS:    2333441  HIT:    2194617  MISS:     138824
LLC LOAD      ACCESS:     219612  HIT:     199205  MISS:      20407
LLC RFO       ACCESS:      40073  HIT:      31358  MISS:       8715
LLC PREFETCH  ACCESS:    1937509  HIT:    1828091  MISS:     109418
LLC WRITEBACK ACCESS:     136247  HIT:     135963  MISS:        284
LLC PREFETCH  REQUESTED:          0  ISSUED:          0  USEFUL:      11706  USELESS:      96127
LLC AVERAGE MISS LATENCY: 172.824 cycles
Major fault: 0 Minor fault: 6365
CPU 0 L1D next line prefetcher final stats

DRAM Statistics
 CHANNEL 0
 RQ ROW_BUFFER_HIT:      26927  ROW_BUFFER_MISS:     111597
 DBUS_CONGESTED:      58402
 WQ ROW_BUFFER_HIT:       8908  ROW_BUFFER_MISS:      38035  FULL:          0

 AVG_CONGESTED_CYCLE: 5

CPU 0 Branch Prediction Accuracy: 99.4713% MPKI: 1.11484 Average ROB Occupancy at Mispredict: 117.773

Branch types
NOT_BRANCH: 39456615 78.9132%
BRANCH_DIRECT_JUMP: 445350 0.8907%
BRANCH_INDIRECT: 131149 0.262298%
BRANCH_CONDITIONAL: 8130196 16.2604%
BRANCH_DIRECT_CALL: 732485 1.46497%
BRANCH_INDIRECT_CALL: 172369 0.344738%
BRANCH_RETURN: 931558 1.86312%
BRANCH_OTHER: 0 0%

