Initialize SIGNATURE TABLE
ST_SET: 1
ST_WAY: 256
ST_TAG_BIT: 16
ST_TAG_MASK: ffff

Initialize PATTERN TABLE
PT_SET: 512
PT_WAY: 4
SIG_DELTA_BIT: 7
C_SIG_BIT: 4
C_DELTA_BIT: 4

Initialize PREFETCH FILTER
FILTER_SET: 1024

*** ChampSim Multicore Out-of-Order Simulator ***

Warmup Instructions: 50000000
Simulation Instructions: 50000000
Number of CPUs: 1
LLC sets: 2048
LLC ways: 16
Off-chip DRAM Size: 4096 MB Channels: 1 Width: 64-bit Data Rate: 3200 MT/s

CPU 0 runs /home/ykhodke/ChampSim/dpc3_traces/server_038.champsimtrace.xz
L1I D-JOLT instruction prefetcher has been constructed!
CPU 0 L1D next line prefetcher
Heartbeat CPU 0 instructions: 10000001 cycles: 3321001 heartbeat IPC: 3.01114 cumulative IPC: 3.01114 (Simulation time: 0 hr 2 min 36 sec) 
Heartbeat CPU 0 instructions: 20000003 cycles: 6645127 heartbeat IPC: 3.00831 cumulative IPC: 3.00972 (Simulation time: 0 hr 5 min 13 sec) 
Heartbeat CPU 0 instructions: 30000003 cycles: 9965557 heartbeat IPC: 3.01166 cumulative IPC: 3.01037 (Simulation time: 0 hr 8 min 25 sec) 
Heartbeat CPU 0 instructions: 40000001 cycles: 13290669 heartbeat IPC: 3.00742 cumulative IPC: 3.00963 (Simulation time: 0 hr 11 min 17 sec) 
Heartbeat CPU 0 instructions: 50000001 cycles: 16613633 heartbeat IPC: 3.00936 cumulative IPC: 3.00958 (Simulation time: 0 hr 14 min 7 sec) 

Warmup complete CPU 0 instructions: 50000001 cycles: 16613633 (Simulation time: 0 hr 14 min 7 sec) 

Heartbeat CPU 0 instructions: 60000002 cycles: 23058350 heartbeat IPC: 1.55166 cumulative IPC: 1.55166 (Simulation time: 0 hr 17 min 16 sec) 
Heartbeat CPU 0 instructions: 70000001 cycles: 29460096 heartbeat IPC: 1.56207 cumulative IPC: 1.55685 (Simulation time: 0 hr 20 min 42 sec) 
Heartbeat CPU 0 instructions: 80000000 cycles: 35857989 heartbeat IPC: 1.56301 cumulative IPC: 1.5589 (Simulation time: 0 hr 24 min 14 sec) 
Heartbeat CPU 0 instructions: 90000001 cycles: 42278184 heartbeat IPC: 1.55759 cumulative IPC: 1.55857 (Simulation time: 0 hr 27 min 0 sec) 
*** Reached end of trace for Core: 0 Repeating trace: /home/ykhodke/ChampSim/dpc3_traces/server_038.champsimtrace.xz
Heartbeat CPU 0 instructions: 100000002 cycles: 48690244 heartbeat IPC: 1.55956 cumulative IPC: 1.55877 (Simulation time: 0 hr 29 min 7 sec) 
Finished CPU 0 instructions: 50000001 cycles: 32076611 cumulative IPC: 1.55877 (Simulation time: 0 hr 29 min 7 sec) 

ChampSim completed all CPUs

Region of Interest Statistics

CPU 0 cumulative IPC: 1.55877 instructions: 50000001 cycles: 32076611
L1D TOTAL     ACCESS:   18692286  HIT:   17709984  MISS:     982302
L1D LOAD      ACCESS:    6358819  HIT:    5865319  MISS:     493500
L1D RFO       ACCESS:    6210990  HIT:    6146661  MISS:      64329
L1D PREFETCH  ACCESS:    6122477  HIT:    5698004  MISS:     424473
L1D WRITEBACK ACCESS:          0  HIT:          0  MISS:          0
L1D PREFETCH  REQUESTED:    6396107  ISSUED:    6243244  USEFUL:     117809  USELESS:     306667
L1D AVERAGE MISS LATENCY: 29.7299 cycles
L1I TOTAL     ACCESS:   19752459  HIT:   14877150  MISS:    4875309
L1I LOAD      ACCESS:    9468184  HIT:    9422882  MISS:      45302
L1I RFO       ACCESS:          0  HIT:          0  MISS:          0
L1I PREFETCH  ACCESS:   10284275  HIT:    5454268  MISS:    4830007
L1I WRITEBACK ACCESS:          0  HIT:          0  MISS:          0
L1I PREFETCH  REQUESTED:   10724322  ISSUED:   10697228  USEFUL:    4071115  USELESS:     758911
L1I AVERAGE MISS LATENCY: 14.7965 cycles
L2C TOTAL     ACCESS:    8794419  HIT:    8466876  MISS:     327543
L2C LOAD      ACCESS:     533468  HIT:     386964  MISS:     146504
L2C RFO       ACCESS:      64032  HIT:      34478  MISS:      29554
L2C PREFETCH  ACCESS:    7905155  HIT:    7754742  MISS:     150413
L2C WRITEBACK ACCESS:     291764  HIT:     290692  MISS:       1072
L2C PREFETCH  REQUESTED:    6656335  ISSUED:    6637903  USEFUL:       6233  USELESS:     144071
L2C AVERAGE MISS LATENCY: 45.3041 cycles
LLC TOTAL     ACCESS:    1872293  HIT:    1813060  MISS:      59233
LLC LOAD      ACCESS:     146499  HIT:     133741  MISS:      12758
LLC RFO       ACCESS:      29553  HIT:      24865  MISS:       4688
LLC PREFETCH  ACCESS:    1546373  HIT:    1505088  MISS:      41285
LLC WRITEBACK ACCESS:     149868  HIT:     149366  MISS:        502
LLC PREFETCH  REQUESTED:          0  ISSUED:          0  USEFUL:       3726  USELESS:      36404
LLC AVERAGE MISS LATENCY: 170.164 cycles
Major fault: 0 Minor fault: 5530
CPU 0 L1D next line prefetcher final stats

DRAM Statistics
 CHANNEL 0
 RQ ROW_BUFFER_HIT:       8380  ROW_BUFFER_MISS:      50336
 DBUS_CONGESTED:      28285
 WQ ROW_BUFFER_HIT:       1288  ROW_BUFFER_MISS:      11689  FULL:          0

 AVG_CONGESTED_CYCLE: 5

CPU 0 Branch Prediction Accuracy: 99.9279% MPKI: 0.12968 Average ROB Occupancy at Mispredict: 263.429

Branch types
NOT_BRANCH: 41006308 82.0126%
BRANCH_DIRECT_JUMP: 541914 1.08383%
BRANCH_INDIRECT: 59690 0.11938%
BRANCH_CONDITIONAL: 5915845 11.8317%
BRANCH_DIRECT_CALL: 1003588 2.00718%
BRANCH_INDIRECT_CALL: 234499 0.468998%
BRANCH_RETURN: 1238071 2.47614%
BRANCH_OTHER: 0 0%

