Initialize SIGNATURE TABLE
ST_SET: 1
ST_WAY: 256
ST_TAG_BIT: 16
ST_TAG_MASK: ffff

Initialize PATTERN TABLE
PT_SET: 512
PT_WAY: 4
SIG_DELTA_BIT: 7
C_SIG_BIT: 4
C_DELTA_BIT: 4

Initialize PREFETCH FILTER
FILTER_SET: 1024

*** ChampSim Multicore Out-of-Order Simulator ***

Warmup Instructions: 50000000
Simulation Instructions: 50000000
Number of CPUs: 1
LLC sets: 2048
LLC ways: 16
Off-chip DRAM Size: 4096 MB Channels: 1 Width: 64-bit Data Rate: 3200 MT/s

CPU 0 runs /home/ykhodke/ChampSim/dpc3_traces/server_026.champsimtrace.xz
L1I D-JOLT instruction prefetcher has been constructed!
CPU 0 L1D next line prefetcher
Heartbeat CPU 0 instructions: 10000000 cycles: 3523977 heartbeat IPC: 2.8377 cumulative IPC: 2.8377 (Simulation time: 0 hr 3 min 27 sec) 
Heartbeat CPU 0 instructions: 20000002 cycles: 7053564 heartbeat IPC: 2.83319 cumulative IPC: 2.83545 (Simulation time: 0 hr 6 min 17 sec) 
Heartbeat CPU 0 instructions: 30000000 cycles: 10573260 heartbeat IPC: 2.84115 cumulative IPC: 2.83735 (Simulation time: 0 hr 9 min 11 sec) 
Heartbeat CPU 0 instructions: 40000003 cycles: 14102249 heartbeat IPC: 2.83367 cumulative IPC: 2.83643 (Simulation time: 0 hr 12 min 21 sec) 
Heartbeat CPU 0 instructions: 50000000 cycles: 17623821 heartbeat IPC: 2.83964 cumulative IPC: 2.83707 (Simulation time: 0 hr 15 min 36 sec) 

Warmup complete CPU 0 instructions: 50000004 cycles: 17623822 (Simulation time: 0 hr 15 min 36 sec) 

*** Reached end of trace for Core: 0 Repeating trace: /home/ykhodke/ChampSim/dpc3_traces/server_026.champsimtrace.xz
Heartbeat CPU 0 instructions: 60000000 cycles: 24538250 heartbeat IPC: 1.44625 cumulative IPC: 1.44625 (Simulation time: 0 hr 18 min 46 sec) 
Heartbeat CPU 0 instructions: 70000003 cycles: 31341937 heartbeat IPC: 1.46979 cumulative IPC: 1.45793 (Simulation time: 0 hr 21 min 47 sec) 
Heartbeat CPU 0 instructions: 80000002 cycles: 38232768 heartbeat IPC: 1.4512 cumulative IPC: 1.45568 (Simulation time: 0 hr 24 min 48 sec) 
Heartbeat CPU 0 instructions: 90000002 cycles: 45030484 heartbeat IPC: 1.47108 cumulative IPC: 1.4595 (Simulation time: 0 hr 27 min 22 sec) 
Heartbeat CPU 0 instructions: 100000000 cycles: 51904498 heartbeat IPC: 1.45475 cumulative IPC: 1.45855 (Simulation time: 0 hr 29 min 5 sec) 
Finished CPU 0 instructions: 50000000 cycles: 34280677 cumulative IPC: 1.45855 (Simulation time: 0 hr 29 min 5 sec) 

ChampSim completed all CPUs

Region of Interest Statistics

CPU 0 cumulative IPC: 1.45855 instructions: 50000000 cycles: 34280677
L1D TOTAL     ACCESS:   19753464  HIT:   18108458  MISS:    1645006
L1D LOAD      ACCESS:    6924824  HIT:    6195647  MISS:     729177
L1D RFO       ACCESS:    6240544  HIT:    5954308  MISS:     286236
L1D PREFETCH  ACCESS:    6588096  HIT:    5958503  MISS:     629593
L1D WRITEBACK ACCESS:          0  HIT:          0  MISS:          0
L1D PREFETCH  REQUESTED:    6972181  ISSUED:    6829753  USEFUL:     151899  USELESS:     477703
L1D AVERAGE MISS LATENCY: 24.4486 cycles
L1I TOTAL     ACCESS:   16271377  HIT:   13075039  MISS:    3196338
L1I LOAD      ACCESS:    9508197  HIT:    9463034  MISS:      45163
L1I RFO       ACCESS:          0  HIT:          0  MISS:          0
L1I PREFETCH  ACCESS:    6763180  HIT:    3612005  MISS:    3151175
L1I WRITEBACK ACCESS:          0  HIT:          0  MISS:          0
L1I PREFETCH  REQUESTED:    7194622  ISSUED:    7115475  USEFUL:    2745654  USELESS:     405503
L1I AVERAGE MISS LATENCY: 20.0167 cycles
L2C TOTAL     ACCESS:    6738283  HIT:    5809232  MISS:     929051
L2C LOAD      ACCESS:     721405  HIT:     568879  MISS:     152526
L2C RFO       ACCESS:     284536  HIT:     182330  MISS:     102206
L2C PREFETCH  ACCESS:    5171160  HIT:    4501824  MISS:     669336
L2C WRITEBACK ACCESS:     561182  HIT:     556199  MISS:       4983
L2C PREFETCH  REQUESTED:    4841345  ISSUED:    4834065  USEFUL:      12199  USELESS:     656947
L2C AVERAGE MISS LATENCY: 37.5075 cycles
LLC TOTAL     ACCESS:    2461876  HIT:    2426332  MISS:      35544
LLC LOAD      ACCESS:     152275  HIT:     148770  MISS:       3505
LLC RFO       ACCESS:     102204  HIT:      87700  MISS:      14504
LLC PREFETCH  ACCESS:    2033987  HIT:    2016648  MISS:      17339
LLC WRITEBACK ACCESS:     173410  HIT:     173214  MISS:        196
LLC PREFETCH  REQUESTED:          0  ISSUED:          0  USEFUL:       1065  USELESS:      15991
LLC AVERAGE MISS LATENCY: 188.403 cycles
Major fault: 0 Minor fault: 2174
CPU 0 L1D next line prefetcher final stats

DRAM Statistics
 CHANNEL 0
 RQ ROW_BUFFER_HIT:      12340  ROW_BUFFER_MISS:      23002
 DBUS_CONGESTED:      23704
 WQ ROW_BUFFER_HIT:       1503  ROW_BUFFER_MISS:      14656  FULL:          0

 AVG_CONGESTED_CYCLE: 6

CPU 0 Branch Prediction Accuracy: 99.822% MPKI: 0.32584 Average ROB Occupancy at Mispredict: 201.766

Branch types
NOT_BRANCH: 40848585 81.6972%
BRANCH_DIRECT_JUMP: 522045 1.04409%
BRANCH_INDIRECT: 204034 0.408068%
BRANCH_CONDITIONAL: 6212965 12.4259%
BRANCH_DIRECT_CALL: 932393 1.86479%
BRANCH_INDIRECT_CALL: 173764 0.347528%
BRANCH_RETURN: 1106152 2.2123%
BRANCH_OTHER: 0 0%

