Initialize SIGNATURE TABLE
ST_SET: 1
ST_WAY: 256
ST_TAG_BIT: 16
ST_TAG_MASK: ffff

Initialize PATTERN TABLE
PT_SET: 512
PT_WAY: 4
SIG_DELTA_BIT: 7
C_SIG_BIT: 4
C_DELTA_BIT: 4

Initialize PREFETCH FILTER
FILTER_SET: 1024

*** ChampSim Multicore Out-of-Order Simulator ***

Warmup Instructions: 50000000
Simulation Instructions: 50000000
Number of CPUs: 1
LLC sets: 2048
LLC ways: 16
Off-chip DRAM Size: 4096 MB Channels: 1 Width: 64-bit Data Rate: 3200 MT/s

CPU 0 runs /home/ykhodke/ChampSim/dpc3_traces/server_002.champsimtrace.xz
LHT KB: 126.25
SCC KB: 1.56
Total KB: 127.81
CPU 0 L1D next line prefetcher
Heartbeat CPU 0 instructions: 10000000 cycles: 3581226 heartbeat IPC: 2.79234 cumulative IPC: 2.79234 (Simulation time: 0 hr 3 min 18 sec) 
Heartbeat CPU 0 instructions: 20000002 cycles: 7170333 heartbeat IPC: 2.78621 cumulative IPC: 2.78927 (Simulation time: 0 hr 6 min 32 sec) 
Heartbeat CPU 0 instructions: 30000000 cycles: 10711082 heartbeat IPC: 2.82426 cumulative IPC: 2.80084 (Simulation time: 0 hr 9 min 46 sec) 
Heartbeat CPU 0 instructions: 40000000 cycles: 14261327 heartbeat IPC: 2.81671 cumulative IPC: 2.80479 (Simulation time: 0 hr 12 min 40 sec) 
Heartbeat CPU 0 instructions: 50000001 cycles: 17809098 heartbeat IPC: 2.81867 cumulative IPC: 2.80755 (Simulation time: 0 hr 16 min 12 sec) 

Warmup complete CPU 0 instructions: 50000001 cycles: 17809098 (Simulation time: 0 hr 16 min 12 sec) 

Heartbeat CPU 0 instructions: 60000000 cycles: 24247351 heartbeat IPC: 1.55322 cumulative IPC: 1.55322 (Simulation time: 0 hr 19 min 14 sec) 
Heartbeat CPU 0 instructions: 70000003 cycles: 30682066 heartbeat IPC: 1.55407 cumulative IPC: 1.55364 (Simulation time: 0 hr 22 min 27 sec) 
Heartbeat CPU 0 instructions: 80000003 cycles: 37119433 heartbeat IPC: 1.55343 cumulative IPC: 1.55357 (Simulation time: 0 hr 25 min 31 sec) 
Heartbeat CPU 0 instructions: 90000002 cycles: 43554633 heartbeat IPC: 1.55395 cumulative IPC: 1.55367 (Simulation time: 0 hr 28 min 8 sec) 
Heartbeat CPU 0 instructions: 100000003 cycles: 49989350 heartbeat IPC: 1.55407 cumulative IPC: 1.55375 (Simulation time: 0 hr 29 min 42 sec) 
Finished CPU 0 instructions: 50000002 cycles: 32180252 cumulative IPC: 1.55375 (Simulation time: 0 hr 29 min 42 sec) 

ChampSim completed all CPUs

Region of Interest Statistics

CPU 0 cumulative IPC: 1.55375 instructions: 50000002 cycles: 32180252
L1D TOTAL     ACCESS:   21525315  HIT:   21524506  MISS:        809
L1D LOAD      ACCESS:    6602294  HIT:    6601918  MISS:        376
L1D RFO       ACCESS:    8433087  HIT:    8432975  MISS:        112
L1D PREFETCH  ACCESS:    6489934  HIT:    6489613  MISS:        321
L1D WRITEBACK ACCESS:          0  HIT:          0  MISS:          0
L1D PREFETCH  REQUESTED:    6602350  ISSUED:    6497318  USEFUL:         91  USELESS:        231
L1D AVERAGE MISS LATENCY: 35.1001 cycles
L1I TOTAL     ACCESS:   24971918  HIT:   24226503  MISS:     745415
L1I LOAD      ACCESS:    9788405  HIT:    9639470  MISS:     148935
L1I RFO       ACCESS:          0  HIT:          0  MISS:          0
L1I PREFETCH  ACCESS:   15183513  HIT:   14587033  MISS:     596480
L1I WRITEBACK ACCESS:          0  HIT:          0  MISS:          0
L1I PREFETCH  REQUESTED:   17068820  ISSUED:   17068820  USEFUL:     540345  USELESS:      56129
L1I AVERAGE MISS LATENCY: 11.2865 cycles
L2C TOTAL     ACCESS:     859356  HIT:     859074  MISS:        282
L2C LOAD      ACCESS:       1971  HIT:       1904  MISS:         67
L2C RFO       ACCESS:        112  HIT:        106  MISS:          6
L2C PREFETCH  ACCESS:     856937  HIT:     856728  MISS:        209
L2C WRITEBACK ACCESS:        336  HIT:        336  MISS:          0
L2C PREFETCH  REQUESTED:     212500  ISSUED:     212500  USEFUL:         52  USELESS:        140
L2C AVERAGE MISS LATENCY: 81.7199 cycles
LLC TOTAL     ACCESS:      68330  HIT:      67662  MISS:        668
LLC LOAD      ACCESS:         67  HIT:         54  MISS:         13
LLC RFO       ACCESS:          6  HIT:          4  MISS:          2
LLC PREFETCH  ACCESS:      68182  HIT:      67530  MISS:        652
LLC WRITEBACK ACCESS:         75  HIT:         74  MISS:          1
LLC PREFETCH  REQUESTED:          0  ISSUED:          0  USEFUL:          7  USELESS:        233
LLC AVERAGE MISS LATENCY: 265.412 cycles
Major fault: 0 Minor fault: 1879
CPU 0 L1D next line prefetcher final stats

DRAM Statistics
 CHANNEL 0
 RQ ROW_BUFFER_HIT:         89  ROW_BUFFER_MISS:        578
 DBUS_CONGESTED:        282
 WQ ROW_BUFFER_HIT:         62  ROW_BUFFER_MISS:        343  FULL:          0

 AVG_CONGESTED_CYCLE: 6

CPU 0 Branch Prediction Accuracy: 99.8789% MPKI: 0.20388 Average ROB Occupancy at Mispredict: 276.408

Branch types
NOT_BRANCH: 41580695 83.1614%
BRANCH_DIRECT_JUMP: 461630 0.92326%
BRANCH_INDIRECT: 0 0%
BRANCH_CONDITIONAL: 5376437 10.7529%
BRANCH_DIRECT_CALL: 1175775 2.35155%
BRANCH_INDIRECT_CALL: 114840 0.22968%
BRANCH_RETURN: 1290625 2.58125%
BRANCH_OTHER: 0 0%

