Initialize SIGNATURE TABLE
ST_SET: 1
ST_WAY: 256
ST_TAG_BIT: 16
ST_TAG_MASK: ffff

Initialize PATTERN TABLE
PT_SET: 512
PT_WAY: 4
SIG_DELTA_BIT: 7
C_SIG_BIT: 4
C_DELTA_BIT: 4

Initialize PREFETCH FILTER
FILTER_SET: 1024

*** ChampSim Multicore Out-of-Order Simulator ***

Warmup Instructions: 50000000
Simulation Instructions: 50000000
Number of CPUs: 1
LLC sets: 2048
LLC ways: 16
Off-chip DRAM Size: 4096 MB Channels: 1 Width: 64-bit Data Rate: 3200 MT/s

CPU 0 runs /home/ykhodke/ChampSim/dpc3_traces/server_015.champsimtrace.xz
L1I D-JOLT instruction prefetcher has been constructed!
CPU 0 L1D next line prefetcher
Heartbeat CPU 0 instructions: 10000002 cycles: 3519450 heartbeat IPC: 2.84135 cumulative IPC: 2.84135 (Simulation time: 0 hr 3 min 10 sec) 
Heartbeat CPU 0 instructions: 20000001 cycles: 7107223 heartbeat IPC: 2.78724 cumulative IPC: 2.81404 (Simulation time: 0 hr 6 min 23 sec) 
Heartbeat CPU 0 instructions: 30000001 cycles: 10646224 heartbeat IPC: 2.82566 cumulative IPC: 2.8179 (Simulation time: 0 hr 9 min 38 sec) 
Heartbeat CPU 0 instructions: 40000002 cycles: 14194264 heartbeat IPC: 2.81846 cumulative IPC: 2.81804 (Simulation time: 0 hr 13 min 10 sec) 
Heartbeat CPU 0 instructions: 50000002 cycles: 17742524 heartbeat IPC: 2.81828 cumulative IPC: 2.81809 (Simulation time: 0 hr 16 min 23 sec) 

Warmup complete CPU 0 instructions: 50000002 cycles: 17742524 (Simulation time: 0 hr 16 min 23 sec) 

Heartbeat CPU 0 instructions: 60000002 cycles: 24040546 heartbeat IPC: 1.5878 cumulative IPC: 1.5878 (Simulation time: 0 hr 19 min 40 sec) 
Heartbeat CPU 0 instructions: 70000003 cycles: 30349420 heartbeat IPC: 1.58507 cumulative IPC: 1.58643 (Simulation time: 0 hr 23 min 7 sec) 
Heartbeat CPU 0 instructions: 80000000 cycles: 36657764 heartbeat IPC: 1.5852 cumulative IPC: 1.58602 (Simulation time: 0 hr 26 min 48 sec) 
Heartbeat CPU 0 instructions: 90000000 cycles: 42969727 heartbeat IPC: 1.58429 cumulative IPC: 1.58559 (Simulation time: 0 hr 29 min 30 sec) 
Heartbeat CPU 0 instructions: 100000002 cycles: 49279421 heartbeat IPC: 1.58486 cumulative IPC: 1.58544 (Simulation time: 0 hr 30 min 49 sec) 
Finished CPU 0 instructions: 50000000 cycles: 31536897 cumulative IPC: 1.58544 (Simulation time: 0 hr 30 min 49 sec) 

ChampSim completed all CPUs

Region of Interest Statistics

CPU 0 cumulative IPC: 1.58544 instructions: 50000000 cycles: 31536897
L1D TOTAL     ACCESS:   21812541  HIT:   21795769  MISS:      16772
L1D LOAD      ACCESS:    6682909  HIT:    6682375  MISS:        534
L1D RFO       ACCESS:    8561359  HIT:    8561263  MISS:         96
L1D PREFETCH  ACCESS:    6568273  HIT:    6552131  MISS:      16142
L1D WRITEBACK ACCESS:          0  HIT:          0  MISS:          0
L1D PREFETCH  REQUESTED:    6682969  ISSUED:    6572688  USEFUL:         83  USELESS:      16056
L1D AVERAGE MISS LATENCY: 16.3927 cycles
L1I TOTAL     ACCESS:   20763440  HIT:   16339209  MISS:    4424231
L1I LOAD      ACCESS:    9860198  HIT:    9838287  MISS:      21911
L1I RFO       ACCESS:          0  HIT:          0  MISS:          0
L1I PREFETCH  ACCESS:   10903242  HIT:    6500922  MISS:    4402320
L1I WRITEBACK ACCESS:          0  HIT:          0  MISS:          0
L1I PREFETCH  REQUESTED:   11430600  ISSUED:   11267008  USEFUL:    2897220  USELESS:    1505099
L1I AVERAGE MISS LATENCY: 14.5371 cycles
L2C TOTAL     ACCESS:    6472134  HIT:    6471825  MISS:        309
L2C LOAD      ACCESS:      22410  HIT:      22344  MISS:         66
L2C RFO       ACCESS:         95  HIT:         86  MISS:          9
L2C PREFETCH  ACCESS:    6449279  HIT:    6449045  MISS:        234
L2C WRITEBACK ACCESS:        350  HIT:        350  MISS:          0
L2C PREFETCH  REQUESTED:    4756453  ISSUED:    4747625  USEFUL:        134  USELESS:        127
L2C AVERAGE MISS LATENCY: 108.592 cycles
LLC TOTAL     ACCESS:     825449  HIT:     824808  MISS:        641
LLC LOAD      ACCESS:         66  HIT:         52  MISS:         14
LLC RFO       ACCESS:          9  HIT:          7  MISS:          2
LLC PREFETCH  ACCESS:     825275  HIT:     824651  MISS:        624
LLC WRITEBACK ACCESS:         99  HIT:         98  MISS:          1
LLC PREFETCH  REQUESTED:          0  ISSUED:          0  USEFUL:          8  USELESS:        150
LLC AVERAGE MISS LATENCY: 426.402 cycles
Major fault: 0 Minor fault: 1893
CPU 0 L1D next line prefetcher final stats

DRAM Statistics
 CHANNEL 0
 RQ ROW_BUFFER_HIT:        119  ROW_BUFFER_MISS:        521
 DBUS_CONGESTED:        413
 WQ ROW_BUFFER_HIT:         64  ROW_BUFFER_MISS:        391  FULL:          0

 AVG_CONGESTED_CYCLE: 6

CPU 0 Branch Prediction Accuracy: 99.9085% MPKI: 0.15428 Average ROB Occupancy at Mispredict: 294.313

Branch types
NOT_BRANCH: 41573140 83.1463%
BRANCH_DIRECT_JUMP: 436254 0.872508%
BRANCH_INDIRECT: 0 0%
BRANCH_CONDITIONAL: 5395897 10.7918%
BRANCH_DIRECT_CALL: 1173391 2.34678%
BRANCH_INDIRECT_CALL: 123911 0.247822%
BRANCH_RETURN: 1297311 2.59462%
BRANCH_OTHER: 0 0%

