Initialize SIGNATURE TABLE
ST_SET: 1
ST_WAY: 256
ST_TAG_BIT: 16
ST_TAG_MASK: ffff

Initialize PATTERN TABLE
PT_SET: 512
PT_WAY: 4
SIG_DELTA_BIT: 7
C_SIG_BIT: 4
C_DELTA_BIT: 4

Initialize PREFETCH FILTER
FILTER_SET: 1024

*** ChampSim Multicore Out-of-Order Simulator ***

Warmup Instructions: 50000000
Simulation Instructions: 50000000
Number of CPUs: 1
LLC sets: 2048
LLC ways: 16
Off-chip DRAM Size: 4096 MB Channels: 1 Width: 64-bit Data Rate: 3200 MT/s

CPU 0 runs /home/ykhodke/ChampSim/dpc3_traces/server_031.champsimtrace.xz
L1I D-JOLT instruction prefetcher has been constructed!
CPU 0 L1D next line prefetcher
Heartbeat CPU 0 instructions: 10000003 cycles: 3519140 heartbeat IPC: 2.8416 cumulative IPC: 2.8416 (Simulation time: 0 hr 3 min 10 sec) 
Heartbeat CPU 0 instructions: 20000002 cycles: 7037779 heartbeat IPC: 2.84201 cumulative IPC: 2.84181 (Simulation time: 0 hr 6 min 16 sec) 
Heartbeat CPU 0 instructions: 30000002 cycles: 10556743 heartbeat IPC: 2.84175 cumulative IPC: 2.84179 (Simulation time: 0 hr 9 min 52 sec) 
Heartbeat CPU 0 instructions: 40000003 cycles: 14070654 heartbeat IPC: 2.84583 cumulative IPC: 2.8428 (Simulation time: 0 hr 13 min 0 sec) 
Heartbeat CPU 0 instructions: 50000001 cycles: 17586860 heartbeat IPC: 2.84397 cumulative IPC: 2.84303 (Simulation time: 0 hr 16 min 10 sec) 

Warmup complete CPU 0 instructions: 50000001 cycles: 17586860 (Simulation time: 0 hr 16 min 10 sec) 

Heartbeat CPU 0 instructions: 60000001 cycles: 25054783 heartbeat IPC: 1.33906 cumulative IPC: 1.33906 (Simulation time: 0 hr 19 min 39 sec) 
Heartbeat CPU 0 instructions: 70000002 cycles: 32596019 heartbeat IPC: 1.32604 cumulative IPC: 1.33252 (Simulation time: 0 hr 23 min 13 sec) 
*** Reached end of trace for Core: 0 Repeating trace: /home/ykhodke/ChampSim/dpc3_traces/server_031.champsimtrace.xz
Heartbeat CPU 0 instructions: 80000000 cycles: 39988091 heartbeat IPC: 1.3528 cumulative IPC: 1.33921 (Simulation time: 0 hr 25 min 55 sec) 
Heartbeat CPU 0 instructions: 90000003 cycles: 47400994 heartbeat IPC: 1.349 cumulative IPC: 1.34165 (Simulation time: 0 hr 27 min 44 sec) 
Heartbeat CPU 0 instructions: 100000000 cycles: 54770962 heartbeat IPC: 1.35686 cumulative IPC: 1.34466 (Simulation time: 0 hr 28 min 37 sec) 
Finished CPU 0 instructions: 50000000 cycles: 37184104 cumulative IPC: 1.34466 (Simulation time: 0 hr 28 min 37 sec) 

ChampSim completed all CPUs

Region of Interest Statistics

CPU 0 cumulative IPC: 1.34466 instructions: 50000000 cycles: 37184104
L1D TOTAL     ACCESS:   19505284  HIT:   17600923  MISS:    1904361
L1D LOAD      ACCESS:    6759261  HIT:    5886177  MISS:     873084
L1D RFO       ACCESS:    6327090  HIT:    6035955  MISS:     291135
L1D PREFETCH  ACCESS:    6418933  HIT:    5678791  MISS:     740142
L1D WRITEBACK ACCESS:          0  HIT:          0  MISS:          0
L1D PREFETCH  REQUESTED:    6820207  ISSUED:    6706251  USEFUL:     174346  USELESS:     565801
L1D AVERAGE MISS LATENCY: 22.6228 cycles
L1I TOTAL     ACCESS:   15307178  HIT:   11906333  MISS:    3400845
L1I LOAD      ACCESS:    9720217  HIT:    9692534  MISS:      27683
L1I RFO       ACCESS:          0  HIT:          0  MISS:          0
L1I PREFETCH  ACCESS:    5586961  HIT:    2213799  MISS:    3373162
L1I WRITEBACK ACCESS:          0  HIT:          0  MISS:          0
L1I PREFETCH  REQUESTED:    5834261  ISSUED:    5802616  USEFUL:    3011179  USELESS:     362004
L1I AVERAGE MISS LATENCY: 17.9338 cycles
L2C TOTAL     ACCESS:    7724952  HIT:    7107237  MISS:     617715
L2C LOAD      ACCESS:     842716  HIT:     716043  MISS:     126673
L2C RFO       ACCESS:     289170  HIT:     245848  MISS:      43322
L2C PREFETCH  ACCESS:    5976132  HIT:    5529458  MISS:     446674
L2C WRITEBACK ACCESS:     616934  HIT:     615888  MISS:       1046
L2C PREFETCH  REQUESTED:    5505146  ISSUED:    5494217  USEFUL:       6141  USELESS:     440163
L2C AVERAGE MISS LATENCY: 44.4802 cycles
LLC TOTAL     ACCESS:    2179586  HIT:    2095403  MISS:      84183
LLC LOAD      ACCESS:     126563  HIT:     107629  MISS:      18934
LLC RFO       ACCESS:      43321  HIT:      39123  MISS:       4198
LLC PREFETCH  ACCESS:    1925815  HIT:    1865390  MISS:      60425
LLC WRITEBACK ACCESS:      83887  HIT:      83261  MISS:        626
LLC PREFETCH  REQUESTED:          0  ISSUED:          0  USEFUL:       2767  USELESS:      57509
LLC AVERAGE MISS LATENCY: 159.408 cycles
Major fault: 0 Minor fault: 6047
CPU 0 L1D next line prefetcher final stats

DRAM Statistics
 CHANNEL 0
 RQ ROW_BUFFER_HIT:      22033  ROW_BUFFER_MISS:      61521
 DBUS_CONGESTED:      33826
 WQ ROW_BUFFER_HIT:        708  ROW_BUFFER_MISS:       5254  FULL:          0

 AVG_CONGESTED_CYCLE: 5

CPU 0 Branch Prediction Accuracy: 99.6894% MPKI: 0.58048 Average ROB Occupancy at Mispredict: 144.982

Branch types
NOT_BRANCH: 40655730 81.3115%
BRANCH_DIRECT_JUMP: 546483 1.09297%
BRANCH_INDIRECT: 172433 0.344866%
BRANCH_CONDITIONAL: 6207601 12.4152%
BRANCH_DIRECT_CALL: 1018499 2.037%
BRANCH_INDIRECT_CALL: 190373 0.380746%
BRANCH_RETURN: 1208856 2.41771%
BRANCH_OTHER: 0 0%

