Initialize SIGNATURE TABLE
ST_SET: 1
ST_WAY: 256
ST_TAG_BIT: 16
ST_TAG_MASK: ffff

Initialize PATTERN TABLE
PT_SET: 512
PT_WAY: 4
SIG_DELTA_BIT: 7
C_SIG_BIT: 4
C_DELTA_BIT: 4

Initialize PREFETCH FILTER
FILTER_SET: 1024

*** ChampSim Multicore Out-of-Order Simulator ***

Warmup Instructions: 50000000
Simulation Instructions: 50000000
Number of CPUs: 1
LLC sets: 2048
LLC ways: 16
Off-chip DRAM Size: 4096 MB Channels: 1 Width: 64-bit Data Rate: 3200 MT/s

CPU 0 runs /home/ykhodke/ChampSim/dpc3_traces/server_025.champsimtrace.xz
L1I D-JOLT instruction prefetcher has been constructed!
CPU 0 L1D next line prefetcher
Heartbeat CPU 0 instructions: 10000003 cycles: 3524398 heartbeat IPC: 2.83736 cumulative IPC: 2.83736 (Simulation time: 0 hr 3 min 3 sec) 
Heartbeat CPU 0 instructions: 20000000 cycles: 7056213 heartbeat IPC: 2.8314 cumulative IPC: 2.83438 (Simulation time: 0 hr 6 min 26 sec) 
Heartbeat CPU 0 instructions: 30000001 cycles: 10579761 heartbeat IPC: 2.83805 cumulative IPC: 2.8356 (Simulation time: 0 hr 9 min 21 sec) 
Heartbeat CPU 0 instructions: 40000003 cycles: 14109966 heartbeat IPC: 2.8327 cumulative IPC: 2.83488 (Simulation time: 0 hr 12 min 10 sec) 
Heartbeat CPU 0 instructions: 50000001 cycles: 17638034 heartbeat IPC: 2.83441 cumulative IPC: 2.83478 (Simulation time: 0 hr 14 min 59 sec) 

Warmup complete CPU 0 instructions: 50000001 cycles: 17638034 (Simulation time: 0 hr 14 min 59 sec) 

Heartbeat CPU 0 instructions: 60000002 cycles: 24426678 heartbeat IPC: 1.47305 cumulative IPC: 1.47305 (Simulation time: 0 hr 18 min 22 sec) 
Heartbeat CPU 0 instructions: 70000000 cycles: 31317305 heartbeat IPC: 1.45125 cumulative IPC: 1.46207 (Simulation time: 0 hr 21 min 42 sec) 
Heartbeat CPU 0 instructions: 80000002 cycles: 38130138 heartbeat IPC: 1.46782 cumulative IPC: 1.46398 (Simulation time: 0 hr 24 min 30 sec) 
Heartbeat CPU 0 instructions: 90000001 cycles: 44607554 heartbeat IPC: 1.54383 cumulative IPC: 1.48316 (Simulation time: 0 hr 27 min 6 sec) 
Heartbeat CPU 0 instructions: 100000003 cycles: 50802606 heartbeat IPC: 1.61419 cumulative IPC: 1.50763 (Simulation time: 0 hr 29 min 3 sec) 
Finished CPU 0 instructions: 50000002 cycles: 33164572 cumulative IPC: 1.50763 (Simulation time: 0 hr 29 min 3 sec) 

ChampSim completed all CPUs

Region of Interest Statistics

CPU 0 cumulative IPC: 1.50763 instructions: 50000002 cycles: 33164572
L1D TOTAL     ACCESS:   19968325  HIT:   18542888  MISS:    1425437
L1D LOAD      ACCESS:    6950353  HIT:    6331275  MISS:     619078
L1D RFO       ACCESS:    6378816  HIT:    6130629  MISS:     248187
L1D PREFETCH  ACCESS:    6639156  HIT:    6080984  MISS:     558172
L1D WRITEBACK ACCESS:          0  HIT:          0  MISS:          0
L1D PREFETCH  REQUESTED:    6990509  ISSUED:    6815304  USEFUL:     130904  USELESS:     427262
L1D AVERAGE MISS LATENCY: 23.2358 cycles
L1I TOTAL     ACCESS:   15906240  HIT:   13066351  MISS:    2839889
L1I LOAD      ACCESS:    9501089  HIT:    9452713  MISS:      48376
L1I RFO       ACCESS:          0  HIT:          0  MISS:          0
L1I PREFETCH  ACCESS:    6405151  HIT:    3613638  MISS:    2791513
L1I WRITEBACK ACCESS:          0  HIT:          0  MISS:          0
L1I PREFETCH  REQUESTED:    6777503  ISSUED:    6718936  USEFUL:    2427043  USELESS:     364463
L1I AVERAGE MISS LATENCY: 19.6657 cycles
L2C TOTAL     ACCESS:    5971153  HIT:    5237770  MISS:     733383
L2C LOAD      ACCESS:     632872  HIT:     514269  MISS:     118603
L2C RFO       ACCESS:     246731  HIT:     172016  MISS:      74715
L2C PREFETCH  ACCESS:    4594740  HIT:    4057583  MISS:     537157
L2C WRITEBACK ACCESS:     496810  HIT:     493902  MISS:       2908
L2C PREFETCH  REQUESTED:    4134004  ISSUED:    4128650  USEFUL:       9157  USELESS:     527778
L2C AVERAGE MISS LATENCY: 37.5725 cycles
LLC TOTAL     ACCESS:    1942260  HIT:    1912728  MISS:      29532
LLC LOAD      ACCESS:     118495  HIT:     115265  MISS:       3230
LLC RFO       ACCESS:      74702  HIT:      63857  MISS:      10845
LLC PREFETCH  ACCESS:    1618555  HIT:    1603304  MISS:      15251
LLC WRITEBACK ACCESS:     130508  HIT:     130302  MISS:        206
LLC PREFETCH  REQUESTED:          0  ISSUED:          0  USEFUL:       1043  USELESS:      13971
LLC AVERAGE MISS LATENCY: 179.468 cycles
Major fault: 0 Minor fault: 2464
CPU 0 L1D next line prefetcher final stats

DRAM Statistics
 CHANNEL 0
 RQ ROW_BUFFER_HIT:       9484  ROW_BUFFER_MISS:      19841
 DBUS_CONGESTED:      18541
 WQ ROW_BUFFER_HIT:       1321  ROW_BUFFER_MISS:      11457  FULL:          0

 AVG_CONGESTED_CYCLE: 6

CPU 0 Branch Prediction Accuracy: 99.8142% MPKI: 0.34676 Average ROB Occupancy at Mispredict: 202.606

Branch types
NOT_BRANCH: 40668938 81.3379%
BRANCH_DIRECT_JUMP: 531701 1.0634%
BRANCH_INDIRECT: 199025 0.39805%
BRANCH_CONDITIONAL: 6211505 12.423%
BRANCH_DIRECT_CALL: 1010912 2.02182%
BRANCH_INDIRECT_CALL: 183501 0.367002%
BRANCH_RETURN: 1194416 2.38883%
BRANCH_OTHER: 0 0%

