Initialize SIGNATURE TABLE
ST_SET: 1
ST_WAY: 256
ST_TAG_BIT: 16
ST_TAG_MASK: ffff

Initialize PATTERN TABLE
PT_SET: 512
PT_WAY: 4
SIG_DELTA_BIT: 7
C_SIG_BIT: 4
C_DELTA_BIT: 4

Initialize PREFETCH FILTER
FILTER_SET: 1024

*** ChampSim Multicore Out-of-Order Simulator ***

Warmup Instructions: 50000000
Simulation Instructions: 50000000
Number of CPUs: 1
LLC sets: 2048
LLC ways: 16
Off-chip DRAM Size: 4096 MB Channels: 1 Width: 64-bit Data Rate: 3200 MT/s

CPU 0 runs /home/ykhodke/ChampSim/dpc3_traces/server_036.champsimtrace.xz
LHT KB: 126.25
SCC KB: 1.56
Total KB: 127.81
CPU 0 L1D next line prefetcher
Heartbeat CPU 0 instructions: 10000000 cycles: 3458985 heartbeat IPC: 2.89102 cumulative IPC: 2.89102 (Simulation time: 0 hr 3 min 19 sec) 
Heartbeat CPU 0 instructions: 20000000 cycles: 6924776 heartbeat IPC: 2.88534 cumulative IPC: 2.88818 (Simulation time: 0 hr 6 min 11 sec) 
Heartbeat CPU 0 instructions: 30000003 cycles: 10432999 heartbeat IPC: 2.85045 cumulative IPC: 2.87549 (Simulation time: 0 hr 8 min 53 sec) 
Heartbeat CPU 0 instructions: 40000000 cycles: 13895506 heartbeat IPC: 2.88808 cumulative IPC: 2.87863 (Simulation time: 0 hr 11 min 48 sec) 
Heartbeat CPU 0 instructions: 50000002 cycles: 17357225 heartbeat IPC: 2.88874 cumulative IPC: 2.88065 (Simulation time: 0 hr 14 min 36 sec) 

Warmup complete CPU 0 instructions: 50000002 cycles: 17357225 (Simulation time: 0 hr 14 min 36 sec) 

Heartbeat CPU 0 instructions: 60000000 cycles: 23331035 heartbeat IPC: 1.67397 cumulative IPC: 1.67397 (Simulation time: 0 hr 16 min 56 sec) 
Heartbeat CPU 0 instructions: 70000001 cycles: 29268834 heartbeat IPC: 1.68413 cumulative IPC: 1.67903 (Simulation time: 0 hr 19 min 16 sec) 
Heartbeat CPU 0 instructions: 80000001 cycles: 35228575 heartbeat IPC: 1.67793 cumulative IPC: 1.67866 (Simulation time: 0 hr 21 min 36 sec) 
Heartbeat CPU 0 instructions: 90000002 cycles: 41160633 heartbeat IPC: 1.68576 cumulative IPC: 1.68043 (Simulation time: 0 hr 23 min 55 sec) 
Heartbeat CPU 0 instructions: 100000001 cycles: 47095194 heartbeat IPC: 1.68504 cumulative IPC: 1.68135 (Simulation time: 0 hr 26 min 19 sec) 
Finished CPU 0 instructions: 50000003 cycles: 29737970 cumulative IPC: 1.68135 (Simulation time: 0 hr 26 min 19 sec) 

ChampSim completed all CPUs

Region of Interest Statistics

CPU 0 cumulative IPC: 1.68135 instructions: 50000003 cycles: 29737970
L1D TOTAL     ACCESS:   21466258  HIT:   21405992  MISS:      60266
L1D LOAD      ACCESS:    7140934  HIT:    7106002  MISS:      34932
L1D RFO       ACCESS:    7362203  HIT:    7354957  MISS:       7246
L1D PREFETCH  ACCESS:    6963121  HIT:    6945033  MISS:      18088
L1D WRITEBACK ACCESS:          0  HIT:          0  MISS:          0
L1D PREFETCH  REQUESTED:    7142060  ISSUED:    6996573  USEFUL:       5433  USELESS:      12656
L1D AVERAGE MISS LATENCY: 18.0126 cycles
L1I TOTAL     ACCESS:   20623439  HIT:   16539717  MISS:    4083722
L1I LOAD      ACCESS:    8867810  HIT:    8037470  MISS:     830340
L1I RFO       ACCESS:          0  HIT:          0  MISS:          0
L1I PREFETCH  ACCESS:   11755629  HIT:    8502247  MISS:    3253382
L1I WRITEBACK ACCESS:          0  HIT:          0  MISS:          0
L1I PREFETCH  REQUESTED:   14111905  ISSUED:   14111905  USEFUL:    2923108  USELESS:     330285
L1I AVERAGE MISS LATENCY: 11.5179 cycles
L2C TOTAL     ACCESS:    5280527  HIT:    5278310  MISS:       2217
L2C LOAD      ACCESS:     109710  HIT:     109399  MISS:        311
L2C RFO       ACCESS:       7237  HIT:       7187  MISS:         50
L2C PREFETCH  ACCESS:    5147958  HIT:    5146117  MISS:       1841
L2C WRITEBACK ACCESS:      15622  HIT:      15607  MISS:         15
L2C PREFETCH  REQUESTED:    2580103  ISSUED:    2580099  USEFUL:        165  USELESS:       1244
L2C AVERAGE MISS LATENCY: 135.486 cycles
LLC TOTAL     ACCESS:     481180  HIT:     478480  MISS:       2700
LLC LOAD      ACCESS:        311  HIT:         98  MISS:        213
LLC RFO       ACCESS:         50  HIT:         20  MISS:         30
LLC PREFETCH  ACCESS:     480045  HIT:     477595  MISS:       2450
LLC WRITEBACK ACCESS:        774  HIT:        767  MISS:          7
LLC PREFETCH  REQUESTED:          0  ISSUED:          0  USEFUL:         32  USELESS:        776
LLC AVERAGE MISS LATENCY: 208.247 cycles
Major fault: 0 Minor fault: 1936
CPU 0 L1D next line prefetcher final stats

DRAM Statistics
 CHANNEL 0
 RQ ROW_BUFFER_HIT:        368  ROW_BUFFER_MISS:       2325
 DBUS_CONGESTED:       1052
 WQ ROW_BUFFER_HIT:        242  ROW_BUFFER_MISS:       1597  FULL:          0

 AVG_CONGESTED_CYCLE: 6

CPU 0 Branch Prediction Accuracy: 99.8717% MPKI: 0.21174 Average ROB Occupancy at Mispredict: 200.695

Branch types
NOT_BRANCH: 41748430 83.4969%
BRANCH_DIRECT_JUMP: 468563 0.937126%
BRANCH_INDIRECT: 0 0%
BRANCH_CONDITIONAL: 5599753 11.1995%
BRANCH_DIRECT_CALL: 885105 1.77021%
BRANCH_INDIRECT_CALL: 206338 0.412676%
BRANCH_RETURN: 1091467 2.18293%
BRANCH_OTHER: 0 0%

