Initialize SIGNATURE TABLE
ST_SET: 1
ST_WAY: 256
ST_TAG_BIT: 16
ST_TAG_MASK: ffff

Initialize PATTERN TABLE
PT_SET: 512
PT_WAY: 4
SIG_DELTA_BIT: 7
C_SIG_BIT: 4
C_DELTA_BIT: 4

Initialize PREFETCH FILTER
FILTER_SET: 1024

*** ChampSim Multicore Out-of-Order Simulator ***

Warmup Instructions: 50000000
Simulation Instructions: 50000000
Number of CPUs: 1
LLC sets: 2048
LLC ways: 16
Off-chip DRAM Size: 4096 MB Channels: 1 Width: 64-bit Data Rate: 3200 MT/s

CPU 0 runs /home/ykhodke/ChampSim/dpc3_traces/server_004.champsimtrace.xz
L1I D-JOLT instruction prefetcher has been constructed!
CPU 0 L1D next line prefetcher
Heartbeat CPU 0 instructions: 10000002 cycles: 3226627 heartbeat IPC: 3.09921 cumulative IPC: 3.09921 (Simulation time: 0 hr 2 min 25 sec) 
Heartbeat CPU 0 instructions: 20000002 cycles: 6560454 heartbeat IPC: 2.99956 cumulative IPC: 3.04857 (Simulation time: 0 hr 4 min 48 sec) 
Heartbeat CPU 0 instructions: 30000000 cycles: 11677531 heartbeat IPC: 1.95424 cumulative IPC: 2.56904 (Simulation time: 0 hr 7 min 49 sec) 
Heartbeat CPU 0 instructions: 40000003 cycles: 15424345 heartbeat IPC: 2.66894 cumulative IPC: 2.5933 (Simulation time: 0 hr 10 min 29 sec) 
Heartbeat CPU 0 instructions: 50000003 cycles: 18651102 heartbeat IPC: 3.09909 cumulative IPC: 2.68081 (Simulation time: 0 hr 13 min 0 sec) 

Warmup complete CPU 0 instructions: 50000003 cycles: 18651102 (Simulation time: 0 hr 13 min 0 sec) 

Heartbeat CPU 0 instructions: 60000002 cycles: 27265435 heartbeat IPC: 1.16086 cumulative IPC: 1.16086 (Simulation time: 0 hr 15 min 39 sec) 
Heartbeat CPU 0 instructions: 70000000 cycles: 35329554 heartbeat IPC: 1.24006 cumulative IPC: 1.19915 (Simulation time: 0 hr 18 min 18 sec) 
Heartbeat CPU 0 instructions: 80000001 cycles: 56240598 heartbeat IPC: 0.478216 cumulative IPC: 0.798095 (Simulation time: 0 hr 22 min 12 sec) 
Heartbeat CPU 0 instructions: 90000003 cycles: 71526078 heartbeat IPC: 0.654216 cumulative IPC: 0.756501 (Simulation time: 0 hr 25 min 22 sec) 
Heartbeat CPU 0 instructions: 100000003 cycles: 80224170 heartbeat IPC: 1.14968 cumulative IPC: 0.812043 (Simulation time: 0 hr 27 min 40 sec) 
Finished CPU 0 instructions: 50000000 cycles: 61573068 cumulative IPC: 0.812043 (Simulation time: 0 hr 27 min 40 sec) 

ChampSim completed all CPUs

Region of Interest Statistics

CPU 0 cumulative IPC: 0.812043 instructions: 50000000 cycles: 61573068
L1D TOTAL     ACCESS:   21635059  HIT:   17564043  MISS:    4071016
L1D LOAD      ACCESS:    8600488  HIT:    6582301  MISS:    2018187
L1D RFO       ACCESS:    4644092  HIT:    4537268  MISS:     106824
L1D PREFETCH  ACCESS:    8390479  HIT:    6444474  MISS:    1946005
L1D WRITEBACK ACCESS:          0  HIT:          0  MISS:          0
L1D PREFETCH  REQUESTED:    8635293  ISSUED:    8546079  USEFUL:     106430  USELESS:    1839569
L1D AVERAGE MISS LATENCY: 22.9551 cycles
L1I TOTAL     ACCESS:   17138142  HIT:   15488821  MISS:    1649321
L1I LOAD      ACCESS:   10721177  HIT:   10601878  MISS:     119299
L1I RFO       ACCESS:          0  HIT:          0  MISS:          0
L1I PREFETCH  ACCESS:    6416965  HIT:    4886943  MISS:    1530022
L1I WRITEBACK ACCESS:          0  HIT:          0  MISS:          0
L1I PREFETCH  REQUESTED:    7192463  ISSUED:    6687307  USEFUL:    1050308  USELESS:     479576
L1I AVERAGE MISS LATENCY: 33.6981 cycles
L2C TOTAL     ACCESS:    7439238  HIT:    6354521  MISS:    1084717
L2C LOAD      ACCESS:    2091463  HIT:    1834986  MISS:     256477
L2C RFO       ACCESS:     105616  HIT:      56932  MISS:      48684
L2C PREFETCH  ACCESS:    4997134  HIT:    4219254  MISS:     777880
L2C WRITEBACK ACCESS:     245025  HIT:     243349  MISS:       1676
L2C PREFETCH  REQUESTED:    6506119  ISSUED:    6503913  USEFUL:      28504  USELESS:     749448
L2C AVERAGE MISS LATENCY: 57.3087 cycles
LLC TOTAL     ACCESS:    2385794  HIT:    2151166  MISS:     234628
LLC LOAD      ACCESS:     256059  HIT:     210843  MISS:      45216
LLC RFO       ACCESS:      48682  HIT:      33997  MISS:      14685
LLC PREFETCH  ACCESS:    1941477  HIT:    1767122  MISS:     174355
LLC WRITEBACK ACCESS:     139576  HIT:     139204  MISS:        372
LLC PREFETCH  REQUESTED:          0  ISSUED:          0  USEFUL:      22740  USELESS:     152347
LLC AVERAGE MISS LATENCY: 174.412 cycles
Major fault: 0 Minor fault: 7601
CPU 0 L1D next line prefetcher final stats

DRAM Statistics
 CHANNEL 0
 RQ ROW_BUFFER_HIT:      45135  ROW_BUFFER_MISS:     189094
 DBUS_CONGESTED:      94362
 WQ ROW_BUFFER_HIT:      11260  ROW_BUFFER_MISS:      42171  FULL:          0

 AVG_CONGESTED_CYCLE: 5

CPU 0 Branch Prediction Accuracy: 98.1603% MPKI: 3.89124 Average ROB Occupancy at Mispredict: 65.7166

Branch types
NOT_BRANCH: 39423755 78.8475%
BRANCH_DIRECT_JUMP: 551642 1.10328%
BRANCH_INDIRECT: 139368 0.278736%
BRANCH_CONDITIONAL: 7920858 15.8417%
BRANCH_DIRECT_CALL: 776072 1.55214%
BRANCH_INDIRECT_CALL: 194644 0.389288%
BRANCH_RETURN: 993311 1.98662%
BRANCH_OTHER: 0 0%

