Initialize SIGNATURE TABLE
ST_SET: 1
ST_WAY: 256
ST_TAG_BIT: 16
ST_TAG_MASK: ffff

Initialize PATTERN TABLE
PT_SET: 512
PT_WAY: 4
SIG_DELTA_BIT: 7
C_SIG_BIT: 4
C_DELTA_BIT: 4

Initialize PREFETCH FILTER
FILTER_SET: 1024

*** ChampSim Multicore Out-of-Order Simulator ***

Warmup Instructions: 50000000
Simulation Instructions: 50000000
Number of CPUs: 1
LLC sets: 2048
LLC ways: 16
Off-chip DRAM Size: 4096 MB Channels: 1 Width: 64-bit Data Rate: 3200 MT/s

CPU 0 runs /home/ykhodke/ChampSim/dpc3_traces/server_024.champsimtrace.xz
L1I D-JOLT instruction prefetcher has been constructed!
CPU 0 L1D next line prefetcher
Heartbeat CPU 0 instructions: 10000000 cycles: 3496195 heartbeat IPC: 2.86025 cumulative IPC: 2.86025 (Simulation time: 0 hr 2 min 45 sec) 
Heartbeat CPU 0 instructions: 20000002 cycles: 6984601 heartbeat IPC: 2.86664 cumulative IPC: 2.86344 (Simulation time: 0 hr 5 min 12 sec) 
Heartbeat CPU 0 instructions: 30000000 cycles: 10482724 heartbeat IPC: 2.85868 cumulative IPC: 2.86185 (Simulation time: 0 hr 7 min 47 sec) 
Heartbeat CPU 0 instructions: 40000000 cycles: 13978697 heartbeat IPC: 2.86043 cumulative IPC: 2.8615 (Simulation time: 0 hr 10 min 16 sec) 
Heartbeat CPU 0 instructions: 50000001 cycles: 17465057 heartbeat IPC: 2.86832 cumulative IPC: 2.86286 (Simulation time: 0 hr 12 min 45 sec) 

Warmup complete CPU 0 instructions: 50000001 cycles: 17465057 (Simulation time: 0 hr 12 min 45 sec) 

Heartbeat CPU 0 instructions: 60000002 cycles: 24218546 heartbeat IPC: 1.48072 cumulative IPC: 1.48072 (Simulation time: 0 hr 15 min 30 sec) 
Heartbeat CPU 0 instructions: 70000000 cycles: 31012318 heartbeat IPC: 1.47194 cumulative IPC: 1.47631 (Simulation time: 0 hr 18 min 47 sec) 
*** Reached end of trace for Core: 0 Repeating trace: /home/ykhodke/ChampSim/dpc3_traces/server_024.champsimtrace.xz
Heartbeat CPU 0 instructions: 80000003 cycles: 37792589 heartbeat IPC: 1.47487 cumulative IPC: 1.47583 (Simulation time: 0 hr 21 min 38 sec) 
Heartbeat CPU 0 instructions: 90000003 cycles: 44604852 heartbeat IPC: 1.46794 cumulative IPC: 1.47385 (Simulation time: 0 hr 24 min 26 sec) 
Heartbeat CPU 0 instructions: 100000002 cycles: 51367880 heartbeat IPC: 1.47863 cumulative IPC: 1.4748 (Simulation time: 0 hr 26 min 41 sec) 
Finished CPU 0 instructions: 50000001 cycles: 33902823 cumulative IPC: 1.4748 (Simulation time: 0 hr 26 min 41 sec) 

ChampSim completed all CPUs

Region of Interest Statistics

CPU 0 cumulative IPC: 1.4748 instructions: 50000001 cycles: 33902823
L1D TOTAL     ACCESS:   19651061  HIT:   18133625  MISS:    1517436
L1D LOAD      ACCESS:    6916243  HIT:    6235659  MISS:     680584
L1D RFO       ACCESS:    6149879  HIT:    5876318  MISS:     273561
L1D PREFETCH  ACCESS:    6584939  HIT:    6021648  MISS:     563291
L1D WRITEBACK ACCESS:          0  HIT:          0  MISS:          0
L1D PREFETCH  REQUESTED:    6970705  ISSUED:    6848095  USEFUL:     135857  USELESS:     427439
L1D AVERAGE MISS LATENCY: 25.6626 cycles
L1I TOTAL     ACCESS:   13649153  HIT:   10833993  MISS:    2815160
L1I LOAD      ACCESS:    9328989  HIT:    9289124  MISS:      39865
L1I RFO       ACCESS:          0  HIT:          0  MISS:          0
L1I PREFETCH  ACCESS:    4320164  HIT:    1544869  MISS:    2775295
L1I WRITEBACK ACCESS:          0  HIT:          0  MISS:          0
L1I PREFETCH  REQUESTED:    4483168  ISSUED:    4472743  USEFUL:    2484770  USELESS:     290521
L1I AVERAGE MISS LATENCY: 19.281 cycles
L2C TOTAL     ACCESS:    6109489  HIT:    5337714  MISS:     771775
L2C LOAD      ACCESS:     637061  HIT:     506649  MISS:     130412
L2C RFO       ACCESS:     272121  HIT:     178801  MISS:      93320
L2C PREFETCH  ACCESS:    4680163  HIT:    4138612  MISS:     541551
L2C WRITEBACK ACCESS:     520144  HIT:     513652  MISS:       6492
L2C PREFETCH  REQUESTED:    4119966  ISSUED:    4114904  USEFUL:      13685  USELESS:     527698
L2C AVERAGE MISS LATENCY: 42.1401 cycles
LLC TOTAL     ACCESS:    2007953  HIT:    1953409  MISS:      54544
LLC LOAD      ACCESS:     130192  HIT:     124420  MISS:       5772
LLC RFO       ACCESS:      93296  HIT:      71079  MISS:      22217
LLC PREFETCH  ACCESS:    1635678  HIT:    1609423  MISS:      26255
LLC WRITEBACK ACCESS:     148787  HIT:     148487  MISS:        300
LLC PREFETCH  REQUESTED:          0  ISSUED:          0  USEFUL:       2255  USELESS:      24309
LLC AVERAGE MISS LATENCY: 197.26 cycles
Major fault: 0 Minor fault: 2374
CPU 0 L1D next line prefetcher final stats

DRAM Statistics
 CHANNEL 0
 RQ ROW_BUFFER_HIT:      17818  ROW_BUFFER_MISS:      36420
 DBUS_CONGESTED:      37434
 WQ ROW_BUFFER_HIT:       2664  ROW_BUFFER_MISS:      22919  FULL:          0

 AVG_CONGESTED_CYCLE: 6

CPU 0 Branch Prediction Accuracy: 99.7477% MPKI: 0.46156 Average ROB Occupancy at Mispredict: 176.298

Branch types
NOT_BRANCH: 40853740 81.7075%
BRANCH_DIRECT_JUMP: 566823 1.13365%
BRANCH_INDIRECT: 197171 0.394342%
BRANCH_CONDITIONAL: 6308439 12.6169%
BRANCH_DIRECT_CALL: 876400 1.7528%
BRANCH_INDIRECT_CALL: 160491 0.320982%
BRANCH_RETURN: 1036885 2.07377%
BRANCH_OTHER: 0 0%

