Initialize SIGNATURE TABLE
ST_SET: 1
ST_WAY: 256
ST_TAG_BIT: 16
ST_TAG_MASK: ffff

Initialize PATTERN TABLE
PT_SET: 512
PT_WAY: 4
SIG_DELTA_BIT: 7
C_SIG_BIT: 4
C_DELTA_BIT: 4

Initialize PREFETCH FILTER
FILTER_SET: 1024

*** ChampSim Multicore Out-of-Order Simulator ***

Warmup Instructions: 50000000
Simulation Instructions: 50000000
Number of CPUs: 1
LLC sets: 2048
LLC ways: 16
Off-chip DRAM Size: 4096 MB Channels: 1 Width: 64-bit Data Rate: 3200 MT/s

CPU 0 runs /home/ykhodke/ChampSim/dpc3_traces/server_039.champsimtrace.xz
L1I D-JOLT instruction prefetcher has been constructed!
CPU 0 L1D next line prefetcher
Heartbeat CPU 0 instructions: 10000003 cycles: 3451554 heartbeat IPC: 2.89725 cumulative IPC: 2.89725 (Simulation time: 0 hr 3 min 9 sec) 
Heartbeat CPU 0 instructions: 20000002 cycles: 6896193 heartbeat IPC: 2.90306 cumulative IPC: 2.90015 (Simulation time: 0 hr 6 min 17 sec) 
Heartbeat CPU 0 instructions: 30000001 cycles: 10342629 heartbeat IPC: 2.90155 cumulative IPC: 2.90062 (Simulation time: 0 hr 9 min 50 sec) 
Heartbeat CPU 0 instructions: 40000002 cycles: 13784483 heartbeat IPC: 2.90541 cumulative IPC: 2.90181 (Simulation time: 0 hr 13 min 43 sec) 
Heartbeat CPU 0 instructions: 50000001 cycles: 17225714 heartbeat IPC: 2.90594 cumulative IPC: 2.90264 (Simulation time: 0 hr 16 min 47 sec) 

Warmup complete CPU 0 instructions: 50000001 cycles: 17225714 (Simulation time: 0 hr 16 min 47 sec) 

Heartbeat CPU 0 instructions: 60000000 cycles: 22996862 heartbeat IPC: 1.73276 cumulative IPC: 1.73276 (Simulation time: 0 hr 19 min 41 sec) 
Heartbeat CPU 0 instructions: 70000000 cycles: 28766235 heartbeat IPC: 1.73329 cumulative IPC: 1.73302 (Simulation time: 0 hr 23 min 3 sec) 
Heartbeat CPU 0 instructions: 80000000 cycles: 34531803 heartbeat IPC: 1.73443 cumulative IPC: 1.73349 (Simulation time: 0 hr 25 min 41 sec) 
Heartbeat CPU 0 instructions: 90000001 cycles: 40304690 heartbeat IPC: 1.73224 cumulative IPC: 1.73318 (Simulation time: 0 hr 27 min 35 sec) 
Heartbeat CPU 0 instructions: 100000002 cycles: 46084768 heartbeat IPC: 1.73008 cumulative IPC: 1.73256 (Simulation time: 0 hr 28 min 32 sec) 
Finished CPU 0 instructions: 50000001 cycles: 28859054 cumulative IPC: 1.73256 (Simulation time: 0 hr 28 min 32 sec) 

ChampSim completed all CPUs

Region of Interest Statistics

CPU 0 cumulative IPC: 1.73256 instructions: 50000001 cycles: 28859054
L1D TOTAL     ACCESS:   19877225  HIT:   19382483  MISS:     494742
L1D LOAD      ACCESS:    6487550  HIT:    6265913  MISS:     221637
L1D RFO       ACCESS:    7088546  HIT:    7021687  MISS:      66859
L1D PREFETCH  ACCESS:    6301129  HIT:    6094883  MISS:     206246
L1D WRITEBACK ACCESS:          0  HIT:          0  MISS:          0
L1D PREFETCH  REQUESTED:    6503430  ISSUED:    6370041  USEFUL:      50112  USELESS:     156138
L1D AVERAGE MISS LATENCY: 15.0611 cycles
L1I TOTAL     ACCESS:   18660588  HIT:   13475032  MISS:    5185556
L1I LOAD      ACCESS:    9318899  HIT:    9241385  MISS:      77514
L1I RFO       ACCESS:          0  HIT:          0  MISS:          0
L1I PREFETCH  ACCESS:    9341689  HIT:    4233647  MISS:    5108042
L1I WRITEBACK ACCESS:          0  HIT:          0  MISS:          0
L1I PREFETCH  REQUESTED:    9909348  ISSUED:    9658770  USEFUL:    4195639  USELESS:     912398
L1I AVERAGE MISS LATENCY: 14.5723 cycles
L2C TOTAL     ACCESS:    8061929  HIT:    8061835  MISS:         94
L2C LOAD      ACCESS:     281249  HIT:     281243  MISS:          6
L2C RFO       ACCESS:      66751  HIT:      66751  MISS:          0
L2C PREFETCH  ACCESS:    7533852  HIT:    7533767  MISS:         85
L2C WRITEBACK ACCESS:     180077  HIT:     180074  MISS:          3
L2C PREFETCH  REQUESTED:    4888685  ISSUED:    4888426  USEFUL:          1  USELESS:          6
L2C AVERAGE MISS LATENCY: 41.266 cycles
LLC TOTAL     ACCESS:     562660  HIT:     562311  MISS:        349
LLC LOAD      ACCESS:          6  HIT:          6  MISS:          0
LLC RFO       ACCESS:          0  HIT:          0  MISS:          0
LLC PREFETCH  ACCESS:     562649  HIT:     562300  MISS:        349
LLC WRITEBACK ACCESS:          5  HIT:          5  MISS:          0
LLC PREFETCH  REQUESTED:          0  ISSUED:          0  USEFUL:          3  USELESS:          0
LLC AVERAGE MISS LATENCY: 174.112 cycles
Major fault: 0 Minor fault: 357
CPU 0 L1D next line prefetcher final stats

DRAM Statistics
 CHANNEL 0
 RQ ROW_BUFFER_HIT:         31  ROW_BUFFER_MISS:        318
 DBUS_CONGESTED:         42
 WQ ROW_BUFFER_HIT:          0  ROW_BUFFER_MISS:          0  FULL:          0

 AVG_CONGESTED_CYCLE: 6

CPU 0 Branch Prediction Accuracy: 99.9091% MPKI: 0.1547 Average ROB Occupancy at Mispredict: 299.412

Branch types
NOT_BRANCH: 41494970 82.9899%
BRANCH_DIRECT_JUMP: 491308 0.982616%
BRANCH_INDIRECT: 0 0%
BRANCH_CONDITIONAL: 5595255 11.1905%
BRANCH_DIRECT_CALL: 1028408 2.05682%
BRANCH_INDIRECT_CALL: 180756 0.361512%
BRANCH_RETURN: 1209170 2.41834%
BRANCH_OTHER: 0 0%

