Initialize SIGNATURE TABLE
ST_SET: 1
ST_WAY: 256
ST_TAG_BIT: 16
ST_TAG_MASK: ffff

Initialize PATTERN TABLE
PT_SET: 512
PT_WAY: 4
SIG_DELTA_BIT: 7
C_SIG_BIT: 4
C_DELTA_BIT: 4

Initialize PREFETCH FILTER
FILTER_SET: 1024

*** ChampSim Multicore Out-of-Order Simulator ***

Warmup Instructions: 50000000
Simulation Instructions: 50000000
Number of CPUs: 1
LLC sets: 2048
LLC ways: 16
Off-chip DRAM Size: 4096 MB Channels: 1 Width: 64-bit Data Rate: 3200 MT/s

CPU 0 runs /home/ykhodke/ChampSim/dpc3_traces/server_036.champsimtrace.xz
L1I D-JOLT instruction prefetcher has been constructed!
CPU 0 L1D next line prefetcher
Heartbeat CPU 0 instructions: 10000000 cycles: 3458964 heartbeat IPC: 2.89104 cumulative IPC: 2.89104 (Simulation time: 0 hr 3 min 41 sec) 
Heartbeat CPU 0 instructions: 20000000 cycles: 6924753 heartbeat IPC: 2.88535 cumulative IPC: 2.88819 (Simulation time: 0 hr 6 min 42 sec) 
Heartbeat CPU 0 instructions: 30000003 cycles: 10432798 heartbeat IPC: 2.85059 cumulative IPC: 2.87555 (Simulation time: 0 hr 9 min 43 sec) 
Heartbeat CPU 0 instructions: 40000000 cycles: 13895298 heartbeat IPC: 2.88809 cumulative IPC: 2.87867 (Simulation time: 0 hr 13 min 8 sec) 
Heartbeat CPU 0 instructions: 50000002 cycles: 17357002 heartbeat IPC: 2.88875 cumulative IPC: 2.88068 (Simulation time: 0 hr 16 min 21 sec) 

Warmup complete CPU 0 instructions: 50000002 cycles: 17357002 (Simulation time: 0 hr 16 min 21 sec) 

Heartbeat CPU 0 instructions: 60000000 cycles: 22957317 heartbeat IPC: 1.78561 cumulative IPC: 1.78561 (Simulation time: 0 hr 19 min 46 sec) 
Heartbeat CPU 0 instructions: 70000001 cycles: 28520490 heartbeat IPC: 1.79754 cumulative IPC: 1.79155 (Simulation time: 0 hr 23 min 8 sec) 
Heartbeat CPU 0 instructions: 80000001 cycles: 34112746 heartbeat IPC: 1.78819 cumulative IPC: 1.79043 (Simulation time: 0 hr 25 min 43 sec) 
Heartbeat CPU 0 instructions: 90000002 cycles: 39674623 heartbeat IPC: 1.79795 cumulative IPC: 1.79231 (Simulation time: 0 hr 28 min 0 sec) 
Heartbeat CPU 0 instructions: 100000001 cycles: 45230436 heartbeat IPC: 1.79992 cumulative IPC: 1.79382 (Simulation time: 0 hr 29 min 33 sec) 
Finished CPU 0 instructions: 50000003 cycles: 27873435 cumulative IPC: 1.79382 (Simulation time: 0 hr 29 min 33 sec) 

ChampSim completed all CPUs

Region of Interest Statistics

CPU 0 cumulative IPC: 1.79382 instructions: 50000003 cycles: 27873435
L1D TOTAL     ACCESS:   20559540  HIT:   20499378  MISS:      60162
L1D LOAD      ACCESS:    6709661  HIT:    6674852  MISS:      34809
L1D RFO       ACCESS:    7345526  HIT:    7338307  MISS:       7219
L1D PREFETCH  ACCESS:    6504353  HIT:    6486219  MISS:      18134
L1D WRITEBACK ACCESS:          0  HIT:          0  MISS:          0
L1D PREFETCH  REQUESTED:    6710621  ISSUED:    6539959  USEFUL:       5457  USELESS:      12678
L1D AVERAGE MISS LATENCY: 17.8955 cycles
L1I TOTAL     ACCESS:   18282598  HIT:   13361442  MISS:    4921156
L1I LOAD      ACCESS:    8985915  HIT:    8941722  MISS:      44193
L1I RFO       ACCESS:          0  HIT:          0  MISS:          0
L1I PREFETCH  ACCESS:    9296683  HIT:    4419720  MISS:    4876963
L1I WRITEBACK ACCESS:          0  HIT:          0  MISS:          0
L1I PREFETCH  REQUESTED:    9696480  ISSUED:    9640582  USEFUL:    3958335  USELESS:     918611
L1I AVERAGE MISS LATENCY: 14.6749 cycles
L2C TOTAL     ACCESS:    7016300  HIT:    7014182  MISS:       2118
L2C LOAD      ACCESS:      78802  HIT:      78471  MISS:        331
L2C RFO       ACCESS:       7210  HIT:       7163  MISS:         47
L2C PREFETCH  ACCESS:    6914665  HIT:    6912933  MISS:       1732
L2C WRITEBACK ACCESS:      15623  HIT:      15615  MISS:          8
L2C PREFETCH  REQUESTED:    5962715  ISSUED:    5958065  USEFUL:        167  USELESS:        976
L2C AVERAGE MISS LATENCY: 168.322 cycles
LLC TOTAL     ACCESS:    1136954  HIT:    1133977  MISS:       2977
LLC LOAD      ACCESS:        330  HIT:        116  MISS:        214
LLC RFO       ACCESS:         47  HIT:         14  MISS:         33
LLC PREFETCH  ACCESS:    1135802  HIT:    1133082  MISS:       2720
LLC WRITEBACK ACCESS:        775  HIT:        765  MISS:         10
LLC PREFETCH  REQUESTED:          0  ISSUED:          0  USEFUL:         49  USELESS:        818
LLC AVERAGE MISS LATENCY: 282.225 cycles
Major fault: 0 Minor fault: 1934
CPU 0 L1D next line prefetcher final stats

DRAM Statistics
 CHANNEL 0
 RQ ROW_BUFFER_HIT:        629  ROW_BUFFER_MISS:       2338
 DBUS_CONGESTED:       1692
 WQ ROW_BUFFER_HIT:        299  ROW_BUFFER_MISS:       1657  FULL:          0

 AVG_CONGESTED_CYCLE: 6

CPU 0 Branch Prediction Accuracy: 99.8717% MPKI: 0.21174 Average ROB Occupancy at Mispredict: 223.936

Branch types
NOT_BRANCH: 41748435 83.4969%
BRANCH_DIRECT_JUMP: 468563 0.937126%
BRANCH_INDIRECT: 0 0%
BRANCH_CONDITIONAL: 5599754 11.1995%
BRANCH_DIRECT_CALL: 885105 1.77021%
BRANCH_INDIRECT_CALL: 206338 0.412676%
BRANCH_RETURN: 1091467 2.18293%
BRANCH_OTHER: 0 0%

