Initialize SIGNATURE TABLE
ST_SET: 1
ST_WAY: 256
ST_TAG_BIT: 16
ST_TAG_MASK: ffff

Initialize PATTERN TABLE
PT_SET: 512
PT_WAY: 4
SIG_DELTA_BIT: 7
C_SIG_BIT: 4
C_DELTA_BIT: 4

Initialize PREFETCH FILTER
FILTER_SET: 1024

*** ChampSim Multicore Out-of-Order Simulator ***

Warmup Instructions: 50000000
Simulation Instructions: 50000000
Number of CPUs: 1
LLC sets: 2048
LLC ways: 16
Off-chip DRAM Size: 4096 MB Channels: 1 Width: 64-bit Data Rate: 3200 MT/s

CPU 0 runs /home/ykhodke/ChampSim/dpc3_traces/server_031.champsimtrace.xz
LHT KB: 63.12
SCC KB: 1.56
Total KB: 64.69
CPU 0 L1D next line prefetcher
Heartbeat CPU 0 instructions: 10000003 cycles: 3524538 heartbeat IPC: 2.83725 cumulative IPC: 2.83725 (Simulation time: 0 hr 2 min 54 sec) 
Heartbeat CPU 0 instructions: 20000002 cycles: 7047006 heartbeat IPC: 2.83892 cumulative IPC: 2.83808 (Simulation time: 0 hr 5 min 46 sec) 
Heartbeat CPU 0 instructions: 30000002 cycles: 10571009 heartbeat IPC: 2.83768 cumulative IPC: 2.83795 (Simulation time: 0 hr 9 min 4 sec) 
Heartbeat CPU 0 instructions: 40000003 cycles: 14090780 heartbeat IPC: 2.84109 cumulative IPC: 2.83874 (Simulation time: 0 hr 12 min 37 sec) 
Heartbeat CPU 0 instructions: 50000001 cycles: 17612516 heartbeat IPC: 2.83951 cumulative IPC: 2.83889 (Simulation time: 0 hr 15 min 47 sec) 

Warmup complete CPU 0 instructions: 50000001 cycles: 17612516 (Simulation time: 0 hr 15 min 47 sec) 

Heartbeat CPU 0 instructions: 60000001 cycles: 25191486 heartbeat IPC: 1.31944 cumulative IPC: 1.31944 (Simulation time: 0 hr 19 min 1 sec) 
Heartbeat CPU 0 instructions: 70000002 cycles: 32823539 heartbeat IPC: 1.31026 cumulative IPC: 1.31484 (Simulation time: 0 hr 22 min 24 sec) 
*** Reached end of trace for Core: 0 Repeating trace: /home/ykhodke/ChampSim/dpc3_traces/server_031.champsimtrace.xz
Heartbeat CPU 0 instructions: 80000000 cycles: 40321921 heartbeat IPC: 1.33362 cumulative IPC: 1.32104 (Simulation time: 0 hr 25 min 43 sec) 
Heartbeat CPU 0 instructions: 90000003 cycles: 47826535 heartbeat IPC: 1.33251 cumulative IPC: 1.32389 (Simulation time: 0 hr 28 min 19 sec) 
Heartbeat CPU 0 instructions: 100000000 cycles: 55283420 heartbeat IPC: 1.34104 cumulative IPC: 1.32728 (Simulation time: 0 hr 29 min 41 sec) 
Finished CPU 0 instructions: 50000000 cycles: 37670906 cumulative IPC: 1.32728 (Simulation time: 0 hr 29 min 41 sec) 

ChampSim completed all CPUs

Region of Interest Statistics

CPU 0 cumulative IPC: 1.32728 instructions: 50000000 cycles: 37670906
L1D TOTAL     ACCESS:   19618894  HIT:   17714386  MISS:    1904508
L1D LOAD      ACCESS:    6815947  HIT:    5943562  MISS:     872385
L1D RFO       ACCESS:    6323440  HIT:    6031883  MISS:     291557
L1D PREFETCH  ACCESS:    6479507  HIT:    5738941  MISS:     740566
L1D WRITEBACK ACCESS:          0  HIT:          0  MISS:          0
L1D PREFETCH  REQUESTED:    6879467  ISSUED:    6770812  USEFUL:     174661  USELESS:     565910
L1D AVERAGE MISS LATENCY: 22.7536 cycles
L1I TOTAL     ACCESS:   25120345  HIT:   19961436  MISS:    5158909
L1I LOAD      ACCESS:    9564876  HIT:    9009225  MISS:     555651
L1I RFO       ACCESS:          0  HIT:          0  MISS:          0
L1I PREFETCH  ACCESS:   15555469  HIT:   10952211  MISS:    4603258
L1I WRITEBACK ACCESS:          0  HIT:          0  MISS:          0
L1I PREFETCH  REQUESTED:   18825366  ISSUED:   18825366  USEFUL:    2619327  USELESS:    1983898
L1I AVERAGE MISS LATENCY: 14.7295 cycles
L2C TOTAL     ACCESS:    9840896  HIT:    9273940  MISS:     566956
L2C LOAD      ACCESS:     924431  HIT:     793151  MISS:     131280
L2C RFO       ACCESS:     289448  HIT:     240421  MISS:      49027
L2C PREFETCH  ACCESS:    8010208  HIT:    7628592  MISS:     381616
L2C WRITEBACK ACCESS:     616809  HIT:     611776  MISS:       5033
L2C PREFETCH  REQUESTED:    5713280  ISSUED:    5702428  USEFUL:      10331  USELESS:     370624
L2C AVERAGE MISS LATENCY: 44.8793 cycles
LLC TOTAL     ACCESS:    1956596  HIT:    1882952  MISS:      73644
LLC LOAD      ACCESS:     131255  HIT:     113098  MISS:      18157
LLC RFO       ACCESS:      49027  HIT:      44897  MISS:       4130
LLC PREFETCH  ACCESS:    1685183  HIT:    1634298  MISS:      50885
LLC WRITEBACK ACCESS:      91131  HIT:      90659  MISS:        472
LLC PREFETCH  REQUESTED:          0  ISSUED:          0  USEFUL:       2214  USELESS:      48627
LLC AVERAGE MISS LATENCY: 158.242 cycles
Major fault: 0 Minor fault: 6059
CPU 0 L1D next line prefetcher final stats

DRAM Statistics
 CHANNEL 0
 RQ ROW_BUFFER_HIT:      20508  ROW_BUFFER_MISS:      52657
 DBUS_CONGESTED:      29903
 WQ ROW_BUFFER_HIT:        735  ROW_BUFFER_MISS:       5051  FULL:          0

 AVG_CONGESTED_CYCLE: 4

CPU 0 Branch Prediction Accuracy: 99.6894% MPKI: 0.58048 Average ROB Occupancy at Mispredict: 139.741

Branch types
NOT_BRANCH: 40655586 81.3112%
BRANCH_DIRECT_JUMP: 546484 1.09297%
BRANCH_INDIRECT: 172433 0.344866%
BRANCH_CONDITIONAL: 6207566 12.4151%
BRANCH_DIRECT_CALL: 1018498 2.037%
BRANCH_INDIRECT_CALL: 190374 0.380748%
BRANCH_RETURN: 1208857 2.41771%
BRANCH_OTHER: 0 0%

