Initialize SIGNATURE TABLE
ST_SET: 1
ST_WAY: 256
ST_TAG_BIT: 16
ST_TAG_MASK: ffff

Initialize PATTERN TABLE
PT_SET: 512
PT_WAY: 4
SIG_DELTA_BIT: 7
C_SIG_BIT: 4
C_DELTA_BIT: 4

Initialize PREFETCH FILTER
FILTER_SET: 1024

*** ChampSim Multicore Out-of-Order Simulator ***

Warmup Instructions: 50000000
Simulation Instructions: 50000000
Number of CPUs: 1
LLC sets: 2048
LLC ways: 16
Off-chip DRAM Size: 4096 MB Channels: 1 Width: 64-bit Data Rate: 3200 MT/s

CPU 0 runs /home/ykhodke/ChampSim/dpc3_traces/server_016.champsimtrace.xz
LHT KB: 126.25
SCC KB: 1.56
Total KB: 127.81
CPU 0 L1D next line prefetcher
Heartbeat CPU 0 instructions: 10000000 cycles: 3497486 heartbeat IPC: 2.8592 cumulative IPC: 2.8592 (Simulation time: 0 hr 3 min 29 sec) 
Heartbeat CPU 0 instructions: 20000000 cycles: 6995556 heartbeat IPC: 2.85872 cumulative IPC: 2.85896 (Simulation time: 0 hr 6 min 44 sec) 
Heartbeat CPU 0 instructions: 30000001 cycles: 10488442 heartbeat IPC: 2.86296 cumulative IPC: 2.86029 (Simulation time: 0 hr 10 min 14 sec) 
Heartbeat CPU 0 instructions: 40000000 cycles: 13786719 heartbeat IPC: 3.03189 cumulative IPC: 2.90134 (Simulation time: 0 hr 11 min 50 sec) 
Heartbeat CPU 0 instructions: 50000002 cycles: 17022184 heartbeat IPC: 3.09075 cumulative IPC: 2.93734 (Simulation time: 0 hr 12 min 54 sec) 

Warmup complete CPU 0 instructions: 50000002 cycles: 17022184 (Simulation time: 0 hr 12 min 54 sec) 

Heartbeat CPU 0 instructions: 60000001 cycles: 24989199 heartbeat IPC: 1.25518 cumulative IPC: 1.25518 (Simulation time: 0 hr 14 min 21 sec) 
Heartbeat CPU 0 instructions: 70000001 cycles: 31922116 heartbeat IPC: 1.44239 cumulative IPC: 1.34229 (Simulation time: 0 hr 17 min 50 sec) 
Heartbeat CPU 0 instructions: 80000001 cycles: 38970599 heartbeat IPC: 1.41875 cumulative IPC: 1.36684 (Simulation time: 0 hr 20 min 59 sec) 
Heartbeat CPU 0 instructions: 90000000 cycles: 45786369 heartbeat IPC: 1.46719 cumulative IPC: 1.39062 (Simulation time: 0 hr 24 min 7 sec) 
Heartbeat CPU 0 instructions: 100000000 cycles: 52746033 heartbeat IPC: 1.43685 cumulative IPC: 1.39963 (Simulation time: 0 hr 27 min 19 sec) 
Finished CPU 0 instructions: 50000002 cycles: 35723850 cumulative IPC: 1.39963 (Simulation time: 0 hr 27 min 19 sec) 

ChampSim completed all CPUs

Region of Interest Statistics

CPU 0 cumulative IPC: 1.39963 instructions: 50000002 cycles: 35723850
L1D TOTAL     ACCESS:   18065698  HIT:   16798286  MISS:    1267412
L1D LOAD      ACCESS:    6574252  HIT:    6000794  MISS:     573458
L1D RFO       ACCESS:    5195626  HIT:    4973551  MISS:     222075
L1D PREFETCH  ACCESS:    6295820  HIT:    5823941  MISS:     471879
L1D WRITEBACK ACCESS:          0  HIT:          0  MISS:          0
L1D PREFETCH  REQUESTED:    6617662  ISSUED:    6515293  USEFUL:     112887  USELESS:     359010
L1D AVERAGE MISS LATENCY: 24.2005 cycles
L1I TOTAL     ACCESS:   20941583  HIT:   17407556  MISS:    3534027
L1I LOAD      ACCESS:    9745558  HIT:    9279617  MISS:     465941
L1I RFO       ACCESS:          0  HIT:          0  MISS:          0
L1I PREFETCH  ACCESS:   11196025  HIT:    8127939  MISS:    3068086
L1I WRITEBACK ACCESS:          0  HIT:          0  MISS:          0
L1I PREFETCH  REQUESTED:   13202065  ISSUED:   13202065  USEFUL:    1741722  USELESS:    1326329
L1I AVERAGE MISS LATENCY: 14.9445 cycles
L2C TOTAL     ACCESS:    6535860  HIT:    5946516  MISS:     589344
L2C LOAD      ACCESS:     576341  HIT:     459779  MISS:     116562
L2C RFO       ACCESS:     220445  HIT:     152320  MISS:      68125
L2C PREFETCH  ACCESS:    5310799  HIT:    4911713  MISS:     399086
L2C WRITEBACK ACCESS:     428275  HIT:     422704  MISS:       5571
L2C PREFETCH  REQUESTED:    3839248  ISSUED:    3834576  USEFUL:      15556  USELESS:     382918
L2C AVERAGE MISS LATENCY: 39.5656 cycles
LLC TOTAL     ACCESS:    1727297  HIT:    1691238  MISS:      36059
LLC LOAD      ACCESS:     116417  HIT:     112399  MISS:       4018
LLC RFO       ACCESS:      68116  HIT:      54560  MISS:      13556
LLC PREFETCH  ACCESS:    1425395  HIT:    1407080  MISS:      18315
LLC WRITEBACK ACCESS:     117369  HIT:     117199  MISS:        170
LLC PREFETCH  REQUESTED:          0  ISSUED:          0  USEFUL:       1565  USELESS:      16766
LLC AVERAGE MISS LATENCY: 179.027 cycles
Major fault: 0 Minor fault: 2380
CPU 0 L1D next line prefetcher final stats

DRAM Statistics
 CHANNEL 0
 RQ ROW_BUFFER_HIT:      11293  ROW_BUFFER_MISS:      24591
 DBUS_CONGESTED:      22926
 WQ ROW_BUFFER_HIT:       1458  ROW_BUFFER_MISS:      14703  FULL:          0

 AVG_CONGESTED_CYCLE: 6

CPU 0 Branch Prediction Accuracy: 99.7225% MPKI: 0.50376 Average ROB Occupancy at Mispredict: 121.661

Branch types
NOT_BRANCH: 40923909 81.8478%
BRANCH_DIRECT_JUMP: 487045 0.97409%
BRANCH_INDIRECT: 169158 0.338316%
BRANCH_CONDITIONAL: 6640823 13.2816%
BRANCH_DIRECT_CALL: 755586 1.51117%
BRANCH_INDIRECT_CALL: 133962 0.267924%
BRANCH_RETURN: 889566 1.77913%
BRANCH_OTHER: 0 0%

