Initialize SIGNATURE TABLE
ST_SET: 1
ST_WAY: 256
ST_TAG_BIT: 16
ST_TAG_MASK: ffff

Initialize PATTERN TABLE
PT_SET: 512
PT_WAY: 4
SIG_DELTA_BIT: 7
C_SIG_BIT: 4
C_DELTA_BIT: 4

Initialize PREFETCH FILTER
FILTER_SET: 1024

*** ChampSim Multicore Out-of-Order Simulator ***

Warmup Instructions: 50000000
Simulation Instructions: 50000000
Number of CPUs: 1
LLC sets: 2048
LLC ways: 16
Off-chip DRAM Size: 4096 MB Channels: 1 Width: 64-bit Data Rate: 3200 MT/s

CPU 0 runs /home/ykhodke/ChampSim/dpc3_traces/server_015.champsimtrace.xz
LHT KB: 63.12
SCC KB: 1.56
Total KB: 64.69
CPU 0 L1D next line prefetcher
Heartbeat CPU 0 instructions: 10000002 cycles: 3519460 heartbeat IPC: 2.84135 cumulative IPC: 2.84135 (Simulation time: 0 hr 2 min 44 sec) 
Heartbeat CPU 0 instructions: 20000001 cycles: 7107597 heartbeat IPC: 2.78696 cumulative IPC: 2.81389 (Simulation time: 0 hr 5 min 39 sec) 
Heartbeat CPU 0 instructions: 30000001 cycles: 10646556 heartbeat IPC: 2.82569 cumulative IPC: 2.81781 (Simulation time: 0 hr 8 min 52 sec) 
Heartbeat CPU 0 instructions: 40000002 cycles: 14194597 heartbeat IPC: 2.81846 cumulative IPC: 2.81797 (Simulation time: 0 hr 11 min 34 sec) 
Heartbeat CPU 0 instructions: 50000002 cycles: 17742857 heartbeat IPC: 2.81828 cumulative IPC: 2.81804 (Simulation time: 0 hr 14 min 18 sec) 

Warmup complete CPU 0 instructions: 50000002 cycles: 17742857 (Simulation time: 0 hr 14 min 18 sec) 

Heartbeat CPU 0 instructions: 60000002 cycles: 24042618 heartbeat IPC: 1.58736 cumulative IPC: 1.58736 (Simulation time: 0 hr 17 min 12 sec) 
Heartbeat CPU 0 instructions: 70000003 cycles: 30355646 heartbeat IPC: 1.58403 cumulative IPC: 1.58569 (Simulation time: 0 hr 20 min 12 sec) 
Heartbeat CPU 0 instructions: 80000000 cycles: 36667695 heartbeat IPC: 1.58427 cumulative IPC: 1.58522 (Simulation time: 0 hr 23 min 5 sec) 
Heartbeat CPU 0 instructions: 90000000 cycles: 42982641 heartbeat IPC: 1.58354 cumulative IPC: 1.5848 (Simulation time: 0 hr 26 min 15 sec) 
Heartbeat CPU 0 instructions: 100000002 cycles: 49296597 heartbeat IPC: 1.58379 cumulative IPC: 1.5846 (Simulation time: 0 hr 28 min 41 sec) 
Finished CPU 0 instructions: 50000000 cycles: 31553740 cumulative IPC: 1.5846 (Simulation time: 0 hr 28 min 41 sec) 

ChampSim completed all CPUs

Region of Interest Statistics

CPU 0 cumulative IPC: 1.5846 instructions: 50000000 cycles: 31553740
L1D TOTAL     ACCESS:   21820649  HIT:   21803875  MISS:      16774
L1D LOAD      ACCESS:    6686817  HIT:    6686286  MISS:        531
L1D RFO       ACCESS:    8561540  HIT:    8561445  MISS:         95
L1D PREFETCH  ACCESS:    6572292  HIT:    6556144  MISS:      16148
L1D WRITEBACK ACCESS:          0  HIT:          0  MISS:          0
L1D PREFETCH  REQUESTED:    6686874  ISSUED:    6576593  USEFUL:         83  USELESS:      16062
L1D AVERAGE MISS LATENCY: 15.9667 cycles
L1I TOTAL     ACCESS:   27386765  HIT:   25261789  MISS:    2124976
L1I LOAD      ACCESS:    9712762  HIT:    9568030  MISS:     144732
L1I RFO       ACCESS:          0  HIT:          0  MISS:          0
L1I PREFETCH  ACCESS:   17674003  HIT:   15693759  MISS:    1980244
L1I WRITEBACK ACCESS:          0  HIT:          0  MISS:          0
L1I PREFETCH  REQUESTED:   19440686  ISSUED:   19440686  USEFUL:    1568969  USELESS:     411230
L1I AVERAGE MISS LATENCY: 13.2568 cycles
L2C TOTAL     ACCESS:    2510716  HIT:    2510435  MISS:        281
L2C LOAD      ACCESS:      15536  HIT:      15465  MISS:         71
L2C RFO       ACCESS:         94  HIT:         88  MISS:          6
L2C PREFETCH  ACCESS:    2494737  HIT:    2494537  MISS:        200
L2C WRITEBACK ACCESS:        349  HIT:        345  MISS:          4
L2C PREFETCH  REQUESTED:     771957  ISSUED:     771957  USEFUL:         67  USELESS:        134
L2C AVERAGE MISS LATENCY: 75.3523 cycles
LLC TOTAL     ACCESS:     199040  HIT:     198477  MISS:        563
LLC LOAD      ACCESS:         71  HIT:         56  MISS:         15
LLC RFO       ACCESS:          6  HIT:          4  MISS:          2
LLC PREFETCH  ACCESS:     198888  HIT:     198342  MISS:        546
LLC WRITEBACK ACCESS:         75  HIT:         75  MISS:          0
LLC PREFETCH  REQUESTED:          0  ISSUED:          0  USEFUL:         10  USELESS:        164
LLC AVERAGE MISS LATENCY: 174.98 cycles
Major fault: 0 Minor fault: 1900
CPU 0 L1D next line prefetcher final stats

DRAM Statistics
 CHANNEL 0
 RQ ROW_BUFFER_HIT:         39  ROW_BUFFER_MISS:        524
 DBUS_CONGESTED:        123
 WQ ROW_BUFFER_HIT:         45  ROW_BUFFER_MISS:        328  FULL:          0

 AVG_CONGESTED_CYCLE: 6

CPU 0 Branch Prediction Accuracy: 99.9085% MPKI: 0.15428 Average ROB Occupancy at Mispredict: 294.497

Branch types
NOT_BRANCH: 41573115 83.1462%
BRANCH_DIRECT_JUMP: 436254 0.872508%
BRANCH_INDIRECT: 0 0%
BRANCH_CONDITIONAL: 5395894 10.7918%
BRANCH_DIRECT_CALL: 1173390 2.34678%
BRANCH_INDIRECT_CALL: 123911 0.247822%
BRANCH_RETURN: 1297311 2.59462%
BRANCH_OTHER: 0 0%

