Initialize SIGNATURE TABLE
ST_SET: 1
ST_WAY: 256
ST_TAG_BIT: 16
ST_TAG_MASK: ffff

Initialize PATTERN TABLE
PT_SET: 512
PT_WAY: 4
SIG_DELTA_BIT: 7
C_SIG_BIT: 4
C_DELTA_BIT: 4

Initialize PREFETCH FILTER
FILTER_SET: 1024

*** ChampSim Multicore Out-of-Order Simulator ***

Warmup Instructions: 50000000
Simulation Instructions: 50000000
Number of CPUs: 1
LLC sets: 2048
LLC ways: 16
Off-chip DRAM Size: 4096 MB Channels: 1 Width: 64-bit Data Rate: 3200 MT/s

CPU 0 runs /home/ykhodke/ChampSim/dpc3_traces/server_027.champsimtrace.xz
L1I D-JOLT instruction prefetcher has been constructed!
CPU 0 L1D next line prefetcher
Heartbeat CPU 0 instructions: 10000001 cycles: 3525431 heartbeat IPC: 2.83653 cumulative IPC: 2.83653 (Simulation time: 0 hr 2 min 50 sec) 
Heartbeat CPU 0 instructions: 20000001 cycles: 7055820 heartbeat IPC: 2.83255 cumulative IPC: 2.83454 (Simulation time: 0 hr 5 min 40 sec) 
Heartbeat CPU 0 instructions: 30000002 cycles: 10581308 heartbeat IPC: 2.83649 cumulative IPC: 2.83519 (Simulation time: 0 hr 8 min 36 sec) 
Heartbeat CPU 0 instructions: 40000000 cycles: 14112748 heartbeat IPC: 2.83171 cumulative IPC: 2.83432 (Simulation time: 0 hr 12 min 7 sec) 
Heartbeat CPU 0 instructions: 50000001 cycles: 17637773 heartbeat IPC: 2.83686 cumulative IPC: 2.83483 (Simulation time: 0 hr 15 min 20 sec) 

Warmup complete CPU 0 instructions: 50000001 cycles: 17637773 (Simulation time: 0 hr 15 min 20 sec) 

Heartbeat CPU 0 instructions: 60000002 cycles: 24502690 heartbeat IPC: 1.45668 cumulative IPC: 1.45668 (Simulation time: 0 hr 18 min 42 sec) 
Heartbeat CPU 0 instructions: 70000003 cycles: 31315232 heartbeat IPC: 1.46788 cumulative IPC: 1.46226 (Simulation time: 0 hr 22 min 41 sec) 
Heartbeat CPU 0 instructions: 80000002 cycles: 38141098 heartbeat IPC: 1.46502 cumulative IPC: 1.46318 (Simulation time: 0 hr 26 min 0 sec) 
Heartbeat CPU 0 instructions: 90000001 cycles: 45050237 heartbeat IPC: 1.44736 cumulative IPC: 1.45919 (Simulation time: 0 hr 28 min 13 sec) 
Heartbeat CPU 0 instructions: 100000002 cycles: 51843596 heartbeat IPC: 1.47203 cumulative IPC: 1.46174 (Simulation time: 0 hr 29 min 27 sec) 
Finished CPU 0 instructions: 50000001 cycles: 34205823 cumulative IPC: 1.46174 (Simulation time: 0 hr 29 min 27 sec) 

ChampSim completed all CPUs

Region of Interest Statistics

CPU 0 cumulative IPC: 1.46174 instructions: 50000001 cycles: 34205823
L1D TOTAL     ACCESS:   19876307  HIT:   18274586  MISS:    1601721
L1D LOAD      ACCESS:    6939871  HIT:    6247421  MISS:     692450
L1D RFO       ACCESS:    6285475  HIT:    6000529  MISS:     284946
L1D PREFETCH  ACCESS:    6650961  HIT:    6026636  MISS:     624325
L1D WRITEBACK ACCESS:          0  HIT:          0  MISS:          0
L1D PREFETCH  REQUESTED:    6984870  ISSUED:    6857668  USEFUL:     149328  USELESS:     475007
L1D AVERAGE MISS LATENCY: 24.2551 cycles
L1I TOTAL     ACCESS:   16555707  HIT:   13248714  MISS:    3306993
L1I LOAD      ACCESS:    9497058  HIT:    9447301  MISS:      49757
L1I RFO       ACCESS:          0  HIT:          0  MISS:          0
L1I PREFETCH  ACCESS:    7058649  HIT:    3801413  MISS:    3257236
L1I WRITEBACK ACCESS:          0  HIT:          0  MISS:          0
L1I PREFETCH  REQUESTED:    7495026  ISSUED:    7400802  USEFUL:    2765837  USELESS:     491423
L1I AVERAGE MISS LATENCY: 20.3492 cycles
L2C TOTAL     ACCESS:    6754055  HIT:    5795554  MISS:     958501
L2C LOAD      ACCESS:     704720  HIT:     554527  MISS:     150193
L2C RFO       ACCESS:     283551  HIT:     192299  MISS:      91252
L2C PREFETCH  ACCESS:    5206578  HIT:    4495071  MISS:     711507
L2C WRITEBACK ACCESS:     559206  HIT:     553657  MISS:       5549
L2C PREFETCH  REQUESTED:    4547002  ISSUED:    4541841  USEFUL:      10889  USELESS:     700407
L2C AVERAGE MISS LATENCY: 37.0476 cycles
LLC TOTAL     ACCESS:    2402272  HIT:    2369588  MISS:      32684
LLC LOAD      ACCESS:     149992  HIT:     146474  MISS:       3518
LLC RFO       ACCESS:      91249  HIT:      77303  MISS:      13946
LLC PREFETCH  ACCESS:    1997775  HIT:    1982718  MISS:      15057
LLC WRITEBACK ACCESS:     163256  HIT:     163093  MISS:        163
LLC PREFETCH  REQUESTED:          0  ISSUED:          0  USEFUL:       1313  USELESS:      13962
LLC AVERAGE MISS LATENCY: 185.755 cycles
Major fault: 0 Minor fault: 2484
CPU 0 L1D next line prefetcher final stats

DRAM Statistics
 CHANNEL 0
 RQ ROW_BUFFER_HIT:      10889  ROW_BUFFER_MISS:      21630
 DBUS_CONGESTED:      22429
 WQ ROW_BUFFER_HIT:       1496  ROW_BUFFER_MISS:      14218  FULL:          0

 AVG_CONGESTED_CYCLE: 6

CPU 0 Branch Prediction Accuracy: 99.8082% MPKI: 0.35064 Average ROB Occupancy at Mispredict: 187.014

Branch types
NOT_BRANCH: 40857505 81.715%
BRANCH_DIRECT_JUMP: 526635 1.05327%
BRANCH_INDIRECT: 205902 0.411804%
BRANCH_CONDITIONAL: 6184049 12.3681%
BRANCH_DIRECT_CALL: 938467 1.87693%
BRANCH_INDIRECT_CALL: 174486 0.348972%
BRANCH_RETURN: 1112959 2.22592%
BRANCH_OTHER: 0 0%

