Initialize SIGNATURE TABLE
ST_SET: 1
ST_WAY: 256
ST_TAG_BIT: 16
ST_TAG_MASK: ffff

Initialize PATTERN TABLE
PT_SET: 512
PT_WAY: 4
SIG_DELTA_BIT: 7
C_SIG_BIT: 4
C_DELTA_BIT: 4

Initialize PREFETCH FILTER
FILTER_SET: 1024

*** ChampSim Multicore Out-of-Order Simulator ***

Warmup Instructions: 50000000
Simulation Instructions: 50000000
Number of CPUs: 1
LLC sets: 2048
LLC ways: 16
Off-chip DRAM Size: 4096 MB Channels: 1 Width: 64-bit Data Rate: 3200 MT/s

CPU 0 runs /home/ykhodke/ChampSim/dpc3_traces/server_002.champsimtrace.xz
L1I D-JOLT instruction prefetcher has been constructed!
CPU 0 L1D next line prefetcher
Heartbeat CPU 0 instructions: 10000000 cycles: 3581227 heartbeat IPC: 2.79234 cumulative IPC: 2.79234 (Simulation time: 0 hr 3 min 2 sec) 
Heartbeat CPU 0 instructions: 20000002 cycles: 7170117 heartbeat IPC: 2.78638 cumulative IPC: 2.78936 (Simulation time: 0 hr 6 min 19 sec) 
Heartbeat CPU 0 instructions: 30000000 cycles: 10710848 heartbeat IPC: 2.82428 cumulative IPC: 2.8009 (Simulation time: 0 hr 9 min 14 sec) 
Heartbeat CPU 0 instructions: 40000000 cycles: 14261093 heartbeat IPC: 2.81671 cumulative IPC: 2.80483 (Simulation time: 0 hr 12 min 18 sec) 
Heartbeat CPU 0 instructions: 50000001 cycles: 17808864 heartbeat IPC: 2.81867 cumulative IPC: 2.80759 (Simulation time: 0 hr 15 min 53 sec) 

Warmup complete CPU 0 instructions: 50000001 cycles: 17808864 (Simulation time: 0 hr 15 min 53 sec) 

Heartbeat CPU 0 instructions: 60000000 cycles: 24250255 heartbeat IPC: 1.55246 cumulative IPC: 1.55246 (Simulation time: 0 hr 18 min 43 sec) 
Heartbeat CPU 0 instructions: 70000003 cycles: 30683736 heartbeat IPC: 1.55437 cumulative IPC: 1.55341 (Simulation time: 0 hr 21 min 34 sec) 
Heartbeat CPU 0 instructions: 80000003 cycles: 37120050 heartbeat IPC: 1.55368 cumulative IPC: 1.5535 (Simulation time: 0 hr 24 min 23 sec) 
Heartbeat CPU 0 instructions: 90000002 cycles: 43553995 heartbeat IPC: 1.55426 cumulative IPC: 1.55369 (Simulation time: 0 hr 27 min 0 sec) 
Heartbeat CPU 0 instructions: 100000003 cycles: 49987895 heartbeat IPC: 1.55427 cumulative IPC: 1.55381 (Simulation time: 0 hr 28 min 37 sec) 
Finished CPU 0 instructions: 50000002 cycles: 32179031 cumulative IPC: 1.55381 (Simulation time: 0 hr 28 min 37 sec) 

ChampSim completed all CPUs

Region of Interest Statistics

CPU 0 cumulative IPC: 1.55381 instructions: 50000002 cycles: 32179031
L1D TOTAL     ACCESS:   21522514  HIT:   21521705  MISS:        809
L1D LOAD      ACCESS:    6600909  HIT:    6600533  MISS:        376
L1D RFO       ACCESS:    8433019  HIT:    8432907  MISS:        112
L1D PREFETCH  ACCESS:    6488586  HIT:    6488265  MISS:        321
L1D WRITEBACK ACCESS:          0  HIT:          0  MISS:          0
L1D PREFETCH  REQUESTED:    6600965  ISSUED:    6495946  USEFUL:         91  USELESS:        231
L1D AVERAGE MISS LATENCY: 37.9963 cycles
L1I TOTAL     ACCESS:   19339313  HIT:   16398997  MISS:    2940316
L1I LOAD      ACCESS:    9909576  HIT:    9889457  MISS:      20119
L1I RFO       ACCESS:          0  HIT:          0  MISS:          0
L1I PREFETCH  ACCESS:    9429737  HIT:    6509540  MISS:    2920197
L1I WRITEBACK ACCESS:          0  HIT:          0  MISS:          0
L1I PREFETCH  REQUESTED:    9720293  ISSUED:    9643802  USEFUL:    1934006  USELESS:     986170
L1I AVERAGE MISS LATENCY: 14.3787 cycles
L2C TOTAL     ACCESS:    4082738  HIT:    4082458  MISS:        280
L2C LOAD      ACCESS:      20377  HIT:      20318  MISS:         59
L2C RFO       ACCESS:        112  HIT:        109  MISS:          3
L2C PREFETCH  ACCESS:    4061913  HIT:    4061695  MISS:        218
L2C WRITEBACK ACCESS:        336  HIT:        336  MISS:          0
L2C PREFETCH  REQUESTED:    2927837  ISSUED:    2924678  USEFUL:        118  USELESS:        124
L2C AVERAGE MISS LATENCY: 161.914 cycles
LLC TOTAL     ACCESS:     514319  HIT:     513382  MISS:        937
LLC LOAD      ACCESS:         59  HIT:         47  MISS:         12
LLC RFO       ACCESS:          3  HIT:          1  MISS:          2
LLC PREFETCH  ACCESS:     514176  HIT:     513253  MISS:        923
LLC WRITEBACK ACCESS:         81  HIT:         81  MISS:          0
LLC PREFETCH  REQUESTED:          0  ISSUED:          0  USEFUL:         16  USELESS:        220
LLC AVERAGE MISS LATENCY: 617.578 cycles
Major fault: 0 Minor fault: 1873
CPU 0 L1D next line prefetcher final stats

DRAM Statistics
 CHANNEL 0
 RQ ROW_BUFFER_HIT:        192  ROW_BUFFER_MISS:        745
 DBUS_CONGESTED:        747
 WQ ROW_BUFFER_HIT:        113  ROW_BUFFER_MISS:        554  FULL:          0

 AVG_CONGESTED_CYCLE: 6

CPU 0 Branch Prediction Accuracy: 99.8789% MPKI: 0.20388 Average ROB Occupancy at Mispredict: 277.307

Branch types
NOT_BRANCH: 41580695 83.1614%
BRANCH_DIRECT_JUMP: 461630 0.92326%
BRANCH_INDIRECT: 0 0%
BRANCH_CONDITIONAL: 5376437 10.7529%
BRANCH_DIRECT_CALL: 1175775 2.35155%
BRANCH_INDIRECT_CALL: 114840 0.22968%
BRANCH_RETURN: 1290625 2.58125%
BRANCH_OTHER: 0 0%

