Initialize SIGNATURE TABLE
ST_SET: 1
ST_WAY: 256
ST_TAG_BIT: 16
ST_TAG_MASK: ffff

Initialize PATTERN TABLE
PT_SET: 512
PT_WAY: 4
SIG_DELTA_BIT: 7
C_SIG_BIT: 4
C_DELTA_BIT: 4

Initialize PREFETCH FILTER
FILTER_SET: 1024

*** ChampSim Multicore Out-of-Order Simulator ***

Warmup Instructions: 50000000
Simulation Instructions: 50000000
Number of CPUs: 1
LLC sets: 2048
LLC ways: 16
Off-chip DRAM Size: 4096 MB Channels: 1 Width: 64-bit Data Rate: 3200 MT/s

CPU 0 runs /home/ykhodke/ChampSim/dpc3_traces/server_020.champsimtrace.xz
L1I D-JOLT instruction prefetcher has been constructed!
CPU 0 L1D next line prefetcher
Heartbeat CPU 0 instructions: 10000003 cycles: 3621623 heartbeat IPC: 2.76119 cumulative IPC: 2.76119 (Simulation time: 0 hr 3 min 1 sec) 
Heartbeat CPU 0 instructions: 20000002 cycles: 7247710 heartbeat IPC: 2.75779 cumulative IPC: 2.75949 (Simulation time: 0 hr 6 min 0 sec) 
Heartbeat CPU 0 instructions: 30000001 cycles: 10867626 heartbeat IPC: 2.76249 cumulative IPC: 2.76049 (Simulation time: 0 hr 8 min 56 sec) 
Heartbeat CPU 0 instructions: 40000002 cycles: 14488922 heartbeat IPC: 2.76144 cumulative IPC: 2.76073 (Simulation time: 0 hr 11 min 45 sec) 
Heartbeat CPU 0 instructions: 50000001 cycles: 18123383 heartbeat IPC: 2.75144 cumulative IPC: 2.75887 (Simulation time: 0 hr 14 min 38 sec) 

Warmup complete CPU 0 instructions: 50000001 cycles: 18123383 (Simulation time: 0 hr 14 min 38 sec) 

Heartbeat CPU 0 instructions: 60000003 cycles: 35639795 heartbeat IPC: 0.570893 cumulative IPC: 0.570893 (Simulation time: 0 hr 18 min 28 sec) 
Heartbeat CPU 0 instructions: 70000002 cycles: 53170277 heartbeat IPC: 0.570435 cumulative IPC: 0.570664 (Simulation time: 0 hr 22 min 23 sec) 
Heartbeat CPU 0 instructions: 80000002 cycles: 70640706 heartbeat IPC: 0.572396 cumulative IPC: 0.57124 (Simulation time: 0 hr 26 min 10 sec) 
Heartbeat CPU 0 instructions: 90000001 cycles: 88136906 heartbeat IPC: 0.571553 cumulative IPC: 0.571318 (Simulation time: 0 hr 28 min 54 sec) 
Heartbeat CPU 0 instructions: 100000002 cycles: 105592163 heartbeat IPC: 0.572893 cumulative IPC: 0.571633 (Simulation time: 0 hr 30 min 12 sec) 
Finished CPU 0 instructions: 50000001 cycles: 87468780 cumulative IPC: 0.571633 (Simulation time: 0 hr 30 min 12 sec) 

ChampSim completed all CPUs

Region of Interest Statistics

CPU 0 cumulative IPC: 0.571633 instructions: 50000001 cycles: 87468780
L1D TOTAL     ACCESS:   18625322  HIT:   16421077  MISS:    2204245
L1D LOAD      ACCESS:    7047353  HIT:    6328230  MISS:     719123
L1D RFO       ACCESS:    5801406  HIT:    4855362  MISS:     946044
L1D PREFETCH  ACCESS:    5776563  HIT:    5237485  MISS:     539078
L1D WRITEBACK ACCESS:          0  HIT:          0  MISS:          0
L1D PREFETCH  REQUESTED:    7088708  ISSUED:    6888322  USEFUL:     199767  USELESS:     339230
L1D AVERAGE MISS LATENCY: 178.259 cycles
L1I TOTAL     ACCESS:   18278701  HIT:   14834956  MISS:    3443745
L1I LOAD      ACCESS:   10131892  HIT:   10087387  MISS:      44505
L1I RFO       ACCESS:          0  HIT:          0  MISS:          0
L1I PREFETCH  ACCESS:    8146809  HIT:    4747569  MISS:    3399240
L1I WRITEBACK ACCESS:          0  HIT:          0  MISS:          0
L1I PREFETCH  REQUESTED:    8774648  ISSUED:    8707833  USEFUL:    2711694  USELESS:     687573
L1I AVERAGE MISS LATENCY: 18.0895 cycles
L2C TOTAL     ACCESS:    8274203  HIT:    6414006  MISS:    1860197
L2C LOAD      ACCESS:     533165  HIT:     267190  MISS:     265975
L2C RFO       ACCESS:     945528  HIT:      18250  MISS:     927278
L2C PREFETCH  ACCESS:    5631901  HIT:    4967793  MISS:     664108
L2C WRITEBACK ACCESS:    1163609  HIT:    1160773  MISS:       2836
L2C PREFETCH  REQUESTED:    4909652  ISSUED:    4905852  USEFUL:      21373  USELESS:     641495
L2C AVERAGE MISS LATENCY: 217.17 cycles
LLC TOTAL     ACCESS:    4209994  HIT:    2743405  MISS:    1466589
LLC LOAD      ACCESS:     265913  HIT:     163922  MISS:     101991
LLC RFO       ACCESS:     927276  HIT:     137677  MISS:     789599
LLC PREFETCH  ACCESS:    1916060  HIT:    1343168  MISS:     572892
LLC WRITEBACK ACCESS:    1100745  HIT:    1098638  MISS:       2107
LLC PREFETCH  REQUESTED:          0  ISSUED:          0  USEFUL:      31962  USELESS:     541255
LLC AVERAGE MISS LATENCY: 284.112 cycles
Major fault: 0 Minor fault: 22094
CPU 0 L1D next line prefetcher final stats

DRAM Statistics
 CHANNEL 0
 RQ ROW_BUFFER_HIT:     411480  ROW_BUFFER_MISS:    1052709
 DBUS_CONGESTED:    1454734
 WQ ROW_BUFFER_HIT:     249105  ROW_BUFFER_MISS:     643150  FULL:          0

 AVG_CONGESTED_CYCLE: 6

CPU 0 Branch Prediction Accuracy: 99.712% MPKI: 0.47638 Average ROB Occupancy at Mispredict: 215.392

Branch types
NOT_BRANCH: 41729517 83.459%
BRANCH_DIRECT_JUMP: 458221 0.916442%
BRANCH_INDIRECT: 49088 0.098176%
BRANCH_CONDITIONAL: 5938533 11.8771%
BRANCH_DIRECT_CALL: 745131 1.49026%
BRANCH_INDIRECT_CALL: 167109 0.334218%
BRANCH_RETURN: 912223 1.82445%
BRANCH_OTHER: 0 0%

