Initialize SIGNATURE TABLE
ST_SET: 1
ST_WAY: 256
ST_TAG_BIT: 16
ST_TAG_MASK: ffff

Initialize PATTERN TABLE
PT_SET: 512
PT_WAY: 4
SIG_DELTA_BIT: 7
C_SIG_BIT: 4
C_DELTA_BIT: 4

Initialize PREFETCH FILTER
FILTER_SET: 1024

*** ChampSim Multicore Out-of-Order Simulator ***

Warmup Instructions: 50000000
Simulation Instructions: 50000000
Number of CPUs: 1
LLC sets: 2048
LLC ways: 16
Off-chip DRAM Size: 4096 MB Channels: 1 Width: 64-bit Data Rate: 3200 MT/s

CPU 0 runs /home/ykhodke/ChampSim/dpc3_traces/server_039.champsimtrace.xz
LHT KB: 63.12
SCC KB: 1.56
Total KB: 64.69
CPU 0 L1D next line prefetcher
Heartbeat CPU 0 instructions: 10000003 cycles: 3451706 heartbeat IPC: 2.89712 cumulative IPC: 2.89712 (Simulation time: 0 hr 3 min 24 sec) 
Heartbeat CPU 0 instructions: 20000002 cycles: 6896511 heartbeat IPC: 2.90292 cumulative IPC: 2.90002 (Simulation time: 0 hr 6 min 48 sec) 
Heartbeat CPU 0 instructions: 30000001 cycles: 10343122 heartbeat IPC: 2.9014 cumulative IPC: 2.90048 (Simulation time: 0 hr 10 min 17 sec) 
Heartbeat CPU 0 instructions: 40000002 cycles: 13785040 heartbeat IPC: 2.90536 cumulative IPC: 2.9017 (Simulation time: 0 hr 13 min 55 sec) 
Heartbeat CPU 0 instructions: 50000001 cycles: 17226300 heartbeat IPC: 2.90591 cumulative IPC: 2.90254 (Simulation time: 0 hr 17 min 34 sec) 

Warmup complete CPU 0 instructions: 50000001 cycles: 17226300 (Simulation time: 0 hr 17 min 34 sec) 

Heartbeat CPU 0 instructions: 60000000 cycles: 23082906 heartbeat IPC: 1.70747 cumulative IPC: 1.70747 (Simulation time: 0 hr 21 min 29 sec) 
Heartbeat CPU 0 instructions: 70000000 cycles: 28931979 heartbeat IPC: 1.70967 cumulative IPC: 1.70857 (Simulation time: 0 hr 24 min 24 sec) 
Heartbeat CPU 0 instructions: 80000000 cycles: 34802960 heartbeat IPC: 1.70329 cumulative IPC: 1.70681 (Simulation time: 0 hr 27 min 3 sec) 
Heartbeat CPU 0 instructions: 90000001 cycles: 40664720 heartbeat IPC: 1.70597 cumulative IPC: 1.7066 (Simulation time: 0 hr 28 min 52 sec) 
Heartbeat CPU 0 instructions: 100000002 cycles: 46534394 heartbeat IPC: 1.70367 cumulative IPC: 1.70601 (Simulation time: 0 hr 30 min 2 sec) 
Finished CPU 0 instructions: 50000001 cycles: 29308094 cumulative IPC: 1.70601 (Simulation time: 0 hr 30 min 2 sec) 

ChampSim completed all CPUs

Region of Interest Statistics

CPU 0 cumulative IPC: 1.70601 instructions: 50000001 cycles: 29308094
L1D TOTAL     ACCESS:   20016577  HIT:   19521856  MISS:     494721
L1D LOAD      ACCESS:    6554214  HIT:    6332517  MISS:     221697
L1D RFO       ACCESS:    7088155  HIT:    7021256  MISS:      66899
L1D PREFETCH  ACCESS:    6374208  HIT:    6168083  MISS:     206125
L1D WRITEBACK ACCESS:          0  HIT:          0  MISS:          0
L1D PREFETCH  REQUESTED:    6570497  ISSUED:    6445222  USEFUL:      49995  USELESS:     156134
L1D AVERAGE MISS LATENCY: 15.0513 cycles
L1I TOTAL     ACCESS:   26503920  HIT:   20939852  MISS:    5564068
L1I LOAD      ACCESS:    9265764  HIT:    8801631  MISS:     464133
L1I RFO       ACCESS:          0  HIT:          0  MISS:          0
L1I PREFETCH  ACCESS:   17238156  HIT:   12138221  MISS:    5099935
L1I WRITEBACK ACCESS:          0  HIT:          0  MISS:          0
L1I PREFETCH  REQUESTED:   19546310  ISSUED:   19546310  USEFUL:    3774042  USELESS:    1325921
L1I AVERAGE MISS LATENCY: 13.3845 cycles
L2C TOTAL     ACCESS:    8077897  HIT:    8077889  MISS:          8
L2C LOAD      ACCESS:     300225  HIT:     300225  MISS:          0
L2C RFO       ACCESS:      66754  HIT:      66754  MISS:          0
L2C PREFETCH  ACCESS:    7530916  HIT:    7530909  MISS:          7
L2C WRITEBACK ACCESS:     180002  HIT:     180001  MISS:          1
L2C PREFETCH  REQUESTED:    3298701  ISSUED:    3298688  USEFUL:          7  USELESS:          2
L2C AVERAGE MISS LATENCY: 26.25 cycles
LLC TOTAL     ACCESS:     200710  HIT:     200227  MISS:        483
LLC LOAD      ACCESS:          0  HIT:          0  MISS:          0
LLC RFO       ACCESS:          0  HIT:          0  MISS:          0
LLC PREFETCH  ACCESS:     200710  HIT:     200227  MISS:        483
LLC WRITEBACK ACCESS:          0  HIT:          0  MISS:          0
LLC PREFETCH  REQUESTED:          0  ISSUED:          0  USEFUL:          0  USELESS:          0
LLC AVERAGE MISS LATENCY: 165.89 cycles
Major fault: 0 Minor fault: 361
CPU 0 L1D next line prefetcher final stats

DRAM Statistics
 CHANNEL 0
 RQ ROW_BUFFER_HIT:         27  ROW_BUFFER_MISS:        456
 DBUS_CONGESTED:          5
 WQ ROW_BUFFER_HIT:          0  ROW_BUFFER_MISS:          0  FULL:          0

 AVG_CONGESTED_CYCLE: 7

CPU 0 Branch Prediction Accuracy: 99.9091% MPKI: 0.1547 Average ROB Occupancy at Mispredict: 245.294

Branch types
NOT_BRANCH: 41495038 82.9901%
BRANCH_DIRECT_JUMP: 491309 0.982618%
BRANCH_INDIRECT: 0 0%
BRANCH_CONDITIONAL: 5595262 11.1905%
BRANCH_DIRECT_CALL: 1028409 2.05682%
BRANCH_INDIRECT_CALL: 180757 0.361514%
BRANCH_RETURN: 1209169 2.41834%
BRANCH_OTHER: 0 0%

