Initialize SIGNATURE TABLE
ST_SET: 1
ST_WAY: 256
ST_TAG_BIT: 16
ST_TAG_MASK: ffff

Initialize PATTERN TABLE
PT_SET: 512
PT_WAY: 4
SIG_DELTA_BIT: 7
C_SIG_BIT: 4
C_DELTA_BIT: 4

Initialize PREFETCH FILTER
FILTER_SET: 1024

*** ChampSim Multicore Out-of-Order Simulator ***

Warmup Instructions: 50000000
Simulation Instructions: 50000000
Number of CPUs: 1
LLC sets: 2048
LLC ways: 16
Off-chip DRAM Size: 4096 MB Channels: 1 Width: 64-bit Data Rate: 3200 MT/s

CPU 0 runs /home/ykhodke/ChampSim/dpc3_traces/server_033.champsimtrace.xz
LHT KB: 63.12
SCC KB: 1.56
Total KB: 64.69
CPU 0 L1D next line prefetcher
Heartbeat CPU 0 instructions: 10000001 cycles: 3340681 heartbeat IPC: 2.9934 cumulative IPC: 2.9934 (Simulation time: 0 hr 3 min 49 sec) 
Heartbeat CPU 0 instructions: 20000002 cycles: 6680004 heartbeat IPC: 2.99462 cumulative IPC: 2.99401 (Simulation time: 0 hr 7 min 25 sec) 
Heartbeat CPU 0 instructions: 30000001 cycles: 10008693 heartbeat IPC: 3.00419 cumulative IPC: 2.99739 (Simulation time: 0 hr 10 min 56 sec) 
Heartbeat CPU 0 instructions: 40000000 cycles: 13346135 heartbeat IPC: 2.99631 cumulative IPC: 2.99712 (Simulation time: 0 hr 14 min 30 sec) 
Heartbeat CPU 0 instructions: 50000000 cycles: 16682867 heartbeat IPC: 2.99694 cumulative IPC: 2.99709 (Simulation time: 0 hr 18 min 3 sec) 

Warmup complete CPU 0 instructions: 50000004 cycles: 16682868 (Simulation time: 0 hr 18 min 3 sec) 

Heartbeat CPU 0 instructions: 60000000 cycles: 23213538 heartbeat IPC: 1.53124 cumulative IPC: 1.53124 (Simulation time: 0 hr 21 min 38 sec) 
Heartbeat CPU 0 instructions: 70000000 cycles: 29700775 heartbeat IPC: 1.54149 cumulative IPC: 1.53635 (Simulation time: 0 hr 25 min 11 sec) 
Heartbeat CPU 0 instructions: 80000000 cycles: 37050708 heartbeat IPC: 1.36056 cumulative IPC: 1.47291 (Simulation time: 0 hr 28 min 1 sec) 
Heartbeat CPU 0 instructions: 90000003 cycles: 43634423 heartbeat IPC: 1.5189 cumulative IPC: 1.48414 (Simulation time: 0 hr 29 min 33 sec) 
Heartbeat CPU 0 instructions: 100000000 cycles: 50159327 heartbeat IPC: 1.53259 cumulative IPC: 1.49359 (Simulation time: 0 hr 30 min 12 sec) 
Finished CPU 0 instructions: 50000000 cycles: 33476466 cumulative IPC: 1.49359 (Simulation time: 0 hr 30 min 12 sec) 

ChampSim completed all CPUs

Region of Interest Statistics

CPU 0 cumulative IPC: 1.49359 instructions: 50000000 cycles: 33476466
L1D TOTAL     ACCESS:   18321062  HIT:   16838685  MISS:    1482377
L1D LOAD      ACCESS:    6184929  HIT:    5501655  MISS:     683274
L1D RFO       ACCESS:    6165204  HIT:    6015413  MISS:     149791
L1D PREFETCH  ACCESS:    5970929  HIT:    5321617  MISS:     649312
L1D WRITEBACK ACCESS:          0  HIT:          0  MISS:          0
L1D PREFETCH  REQUESTED:    6226637  ISSUED:    6108488  USEFUL:     141050  USELESS:     508268
L1D AVERAGE MISS LATENCY: 23.323 cycles
L1I TOTAL     ACCESS:   25607760  HIT:   20147358  MISS:    5460402
L1I LOAD      ACCESS:    9625591  HIT:    9158930  MISS:     466661
L1I RFO       ACCESS:          0  HIT:          0  MISS:          0
L1I PREFETCH  ACCESS:   15982169  HIT:   10988428  MISS:    4993741
L1I WRITEBACK ACCESS:          0  HIT:          0  MISS:          0
L1I PREFETCH  REQUESTED:   18279888  ISSUED:   18279888  USEFUL:    3027505  USELESS:    1966166
L1I AVERAGE MISS LATENCY: 13.8453 cycles
L2C TOTAL     ACCESS:    9237627  HIT:    8965795  MISS:     271832
L2C LOAD      ACCESS:     757806  HIT:     641985  MISS:     115821
L2C RFO       ACCESS:     148403  HIT:     129237  MISS:      19166
L2C PREFETCH  ACCESS:    7964945  HIT:    7829090  MISS:     135855
L2C WRITEBACK ACCESS:     366473  HIT:     365483  MISS:        990
L2C PREFETCH  REQUESTED:    5363921  ISSUED:    5355051  USEFUL:      10007  USELESS:     125301
L2C AVERAGE MISS LATENCY: 49.8756 cycles
LLC TOTAL     ACCESS:    1718475  HIT:    1671674  MISS:      46801
LLC LOAD      ACCESS:     115807  HIT:     103106  MISS:      12701
LLC RFO       ACCESS:      19166  HIT:      16226  MISS:       2940
LLC PREFETCH  ACCESS:    1481961  HIT:    1451033  MISS:      30928
LLC WRITEBACK ACCESS:     101541  HIT:     101309  MISS:        232
LLC PREFETCH  REQUESTED:          0  ISSUED:          0  USEFUL:       4825  USELESS:      25502
LLC AVERAGE MISS LATENCY: 172.682 cycles
Major fault: 0 Minor fault: 2493
CPU 0 L1D next line prefetcher final stats

DRAM Statistics
 CHANNEL 0
 RQ ROW_BUFFER_HIT:       7482  ROW_BUFFER_MISS:      39079
 DBUS_CONGESTED:      18682
 WQ ROW_BUFFER_HIT:       3342  ROW_BUFFER_MISS:      14415  FULL:          0

 AVG_CONGESTED_CYCLE: 5

CPU 0 Branch Prediction Accuracy: 99.9029% MPKI: 0.19006 Average ROB Occupancy at Mispredict: 223.102

Branch types
NOT_BRANCH: 40217101 80.4342%
BRANCH_DIRECT_JUMP: 774599 1.5492%
BRANCH_INDIRECT: 108806 0.217612%
BRANCH_CONDITIONAL: 6379330 12.7587%
BRANCH_DIRECT_CALL: 1048808 2.09762%
BRANCH_INDIRECT_CALL: 211109 0.422218%
BRANCH_RETURN: 1259925 2.51985%
BRANCH_OTHER: 0 0%

