Initialize SIGNATURE TABLE
ST_SET: 1
ST_WAY: 256
ST_TAG_BIT: 16
ST_TAG_MASK: ffff

Initialize PATTERN TABLE
PT_SET: 512
PT_WAY: 4
SIG_DELTA_BIT: 7
C_SIG_BIT: 4
C_DELTA_BIT: 4

Initialize PREFETCH FILTER
FILTER_SET: 1024

*** ChampSim Multicore Out-of-Order Simulator ***

Warmup Instructions: 50000000
Simulation Instructions: 50000000
Number of CPUs: 1
LLC sets: 2048
LLC ways: 16
Off-chip DRAM Size: 4096 MB Channels: 1 Width: 64-bit Data Rate: 3200 MT/s

CPU 0 runs /home/ykhodke/ChampSim/dpc3_traces/server_031.champsimtrace.xz
L1I D-JOLT instruction prefetcher has been constructed!
CPU 0 L1D next line prefetcher
hashed_perceptron-D_JOLT_l_0p5-next_line-spp_dev-no-lru-1core: prefetcher/l1i_prefetcher.cc:557: void {anonymous}::D_JOLT_PREFETCHER::branch_operate(uint64_t, uint8_t, uint64_t): Assertion `sig_1 < (1ull<<ShortRangePrefetcher_TagBits) * ShortRangePrefetcher_N_Sets' failed.
