Initialize SIGNATURE TABLE
ST_SET: 1
ST_WAY: 256
ST_TAG_BIT: 16
ST_TAG_MASK: ffff

Initialize PATTERN TABLE
PT_SET: 512
PT_WAY: 4
SIG_DELTA_BIT: 7
C_SIG_BIT: 4
C_DELTA_BIT: 4

Initialize PREFETCH FILTER
FILTER_SET: 1024

*** ChampSim Multicore Out-of-Order Simulator ***

Warmup Instructions: 50000000
Simulation Instructions: 50000000
Number of CPUs: 1
LLC sets: 2048
LLC ways: 16
Off-chip DRAM Size: 4096 MB Channels: 1 Width: 64-bit Data Rate: 3200 MT/s

CPU 0 runs /home/ykhodke/ChampSim/dpc3_traces/server_031.champsimtrace.xz
LHT KB: 126.25
SCC KB: 1.56
Total KB: 127.81
CPU 0 L1D next line prefetcher
Heartbeat CPU 0 instructions: 10000003 cycles: 3521139 heartbeat IPC: 2.83999 cumulative IPC: 2.83999 (Simulation time: 0 hr 4 min 12 sec) 
Heartbeat CPU 0 instructions: 20000002 cycles: 7040916 heartbeat IPC: 2.84109 cumulative IPC: 2.84054 (Simulation time: 0 hr 7 min 59 sec) 
Heartbeat CPU 0 instructions: 30000002 cycles: 10561110 heartbeat IPC: 2.84075 cumulative IPC: 2.84061 (Simulation time: 0 hr 11 min 53 sec) 
Heartbeat CPU 0 instructions: 40000003 cycles: 14076897 heartbeat IPC: 2.84431 cumulative IPC: 2.84154 (Simulation time: 0 hr 16 min 7 sec) 
Heartbeat CPU 0 instructions: 50000000 cycles: 17595282 heartbeat IPC: 2.84221 cumulative IPC: 2.84167 (Simulation time: 0 hr 19 min 41 sec) 

Warmup complete CPU 0 instructions: 50000004 cycles: 17595283 (Simulation time: 0 hr 19 min 41 sec) 

Heartbeat CPU 0 instructions: 60000001 cycles: 25210866 heartbeat IPC: 1.3131 cumulative IPC: 1.3131 (Simulation time: 0 hr 23 min 4 sec) 
Heartbeat CPU 0 instructions: 70000002 cycles: 32874304 heartbeat IPC: 1.3049 cumulative IPC: 1.30898 (Simulation time: 0 hr 26 min 25 sec) 
*** Reached end of trace for Core: 0 Repeating trace: /home/ykhodke/ChampSim/dpc3_traces/server_031.champsimtrace.xz
Heartbeat CPU 0 instructions: 80000000 cycles: 40419485 heartbeat IPC: 1.32535 cumulative IPC: 1.31439 (Simulation time: 0 hr 28 min 46 sec) 
Heartbeat CPU 0 instructions: 90000003 cycles: 47980747 heartbeat IPC: 1.32253 cumulative IPC: 1.31642 (Simulation time: 0 hr 29 min 43 sec) 
Heartbeat CPU 0 instructions: 100000000 cycles: 55507358 heartbeat IPC: 1.32862 cumulative IPC: 1.31884 (Simulation time: 0 hr 30 min 14 sec) 
Finished CPU 0 instructions: 50000000 cycles: 37912080 cumulative IPC: 1.31884 (Simulation time: 0 hr 30 min 14 sec) 

ChampSim completed all CPUs

Region of Interest Statistics

CPU 0 cumulative IPC: 1.31884 instructions: 50000000 cycles: 37912080
L1D TOTAL     ACCESS:   19690870  HIT:   17786348  MISS:    1904522
L1D LOAD      ACCESS:    6851873  HIT:    5980299  MISS:     871574
L1D RFO       ACCESS:    6321481  HIT:    6030211  MISS:     291270
L1D PREFETCH  ACCESS:    6517516  HIT:    5775838  MISS:     741678
L1D WRITEBACK ACCESS:          0  HIT:          0  MISS:          0
L1D PREFETCH  REQUESTED:    6914543  ISSUED:    6804837  USEFUL:     176077  USELESS:     565606
L1D AVERAGE MISS LATENCY: 22.9646 cycles
L1I TOTAL     ACCESS:   21279808  HIT:   17161591  MISS:    4118217
L1I LOAD      ACCESS:    9498439  HIT:    8689556  MISS:     808883
L1I RFO       ACCESS:          0  HIT:          0  MISS:          0
L1I PREFETCH  ACCESS:   11781369  HIT:    8472035  MISS:    3309334
L1I WRITEBACK ACCESS:          0  HIT:          0  MISS:          0
L1I PREFETCH  REQUESTED:   14358860  ISSUED:   14358860  USEFUL:    2288565  USELESS:    1020759
L1I AVERAGE MISS LATENCY: 13.3815 cycles
L2C TOTAL     ACCESS:    8379265  HIT:    7754191  MISS:     625074
L2C LOAD      ACCESS:     908292  HIT:     774335  MISS:     133957
L2C RFO       ACCESS:     289664  HIT:     230262  MISS:      59402
L2C PREFETCH  ACCESS:    6564518  HIT:    6136122  MISS:     428396
L2C WRITEBACK ACCESS:     616791  HIT:     613472  MISS:       3319
L2C PREFETCH  REQUESTED:    4637182  ISSUED:    4630602  USEFUL:      10445  USELESS:     417504
L2C AVERAGE MISS LATENCY: 43.2617 cycles
LLC TOTAL     ACCESS:    1880650  HIT:    1807953  MISS:      72697
LLC LOAD      ACCESS:     133887  HIT:     115854  MISS:      18033
LLC RFO       ACCESS:      59402  HIT:      55292  MISS:       4110
LLC PREFETCH  ACCESS:    1585803  HIT:    1535753  MISS:      50050
LLC WRITEBACK ACCESS:     101558  HIT:     101054  MISS:        504
LLC PREFETCH  REQUESTED:          0  ISSUED:          0  USEFUL:       2142  USELESS:      47864
LLC AVERAGE MISS LATENCY: 156.898 cycles
Major fault: 0 Minor fault: 6052
CPU 0 L1D next line prefetcher final stats

DRAM Statistics
 CHANNEL 0
 RQ ROW_BUFFER_HIT:      20436  ROW_BUFFER_MISS:      51748
 DBUS_CONGESTED:      29575
 WQ ROW_BUFFER_HIT:        643  ROW_BUFFER_MISS:       5109  FULL:          0

 AVG_CONGESTED_CYCLE: 4

CPU 0 Branch Prediction Accuracy: 99.6894% MPKI: 0.58048 Average ROB Occupancy at Mispredict: 133.28

Branch types
NOT_BRANCH: 40655627 81.3113%
BRANCH_DIRECT_JUMP: 546484 1.09297%
BRANCH_INDIRECT: 172433 0.344866%
BRANCH_CONDITIONAL: 6207577 12.4152%
BRANCH_DIRECT_CALL: 1018498 2.037%
BRANCH_INDIRECT_CALL: 190374 0.380748%
BRANCH_RETURN: 1208857 2.41771%
BRANCH_OTHER: 0 0%

