Initialize SIGNATURE TABLE
ST_SET: 1
ST_WAY: 256
ST_TAG_BIT: 16
ST_TAG_MASK: ffff

Initialize PATTERN TABLE
PT_SET: 512
PT_WAY: 4
SIG_DELTA_BIT: 7
C_SIG_BIT: 4
C_DELTA_BIT: 4

Initialize PREFETCH FILTER
FILTER_SET: 1024

*** ChampSim Multicore Out-of-Order Simulator ***

Warmup Instructions: 50000000
Simulation Instructions: 50000000
Number of CPUs: 1
LLC sets: 2048
LLC ways: 16
Off-chip DRAM Size: 4096 MB Channels: 1 Width: 64-bit Data Rate: 3200 MT/s

CPU 0 runs /home/ykhodke/ChampSim/dpc3_traces/server_031.champsimtrace.xz
L1I D-JOLT instruction prefetcher has been constructed!
CPU 0 L1D next line prefetcher
Heartbeat CPU 0 instructions: 10000003 cycles: 3521062 heartbeat IPC: 2.84005 cumulative IPC: 2.84005 (Simulation time: 0 hr 3 min 52 sec) 
Heartbeat CPU 0 instructions: 20000002 cycles: 7041072 heartbeat IPC: 2.8409 cumulative IPC: 2.84048 (Simulation time: 0 hr 7 min 43 sec) 
Heartbeat CPU 0 instructions: 30000002 cycles: 10560971 heartbeat IPC: 2.84099 cumulative IPC: 2.84065 (Simulation time: 0 hr 11 min 44 sec) 
Heartbeat CPU 0 instructions: 40000003 cycles: 14076346 heartbeat IPC: 2.84465 cumulative IPC: 2.84165 (Simulation time: 0 hr 15 min 35 sec) 
Heartbeat CPU 0 instructions: 50000001 cycles: 17594523 heartbeat IPC: 2.84238 cumulative IPC: 2.84179 (Simulation time: 0 hr 19 min 6 sec) 

Warmup complete CPU 0 instructions: 50000001 cycles: 17594523 (Simulation time: 0 hr 19 min 6 sec) 

Heartbeat CPU 0 instructions: 60000001 cycles: 25065042 heartbeat IPC: 1.3386 cumulative IPC: 1.3386 (Simulation time: 0 hr 23 min 18 sec) 
Heartbeat CPU 0 instructions: 70000002 cycles: 32594287 heartbeat IPC: 1.32815 cumulative IPC: 1.33335 (Simulation time: 0 hr 26 min 18 sec) 
*** Reached end of trace for Core: 0 Repeating trace: /home/ykhodke/ChampSim/dpc3_traces/server_031.champsimtrace.xz
Heartbeat CPU 0 instructions: 80000000 cycles: 40000835 heartbeat IPC: 1.35016 cumulative IPC: 1.33891 (Simulation time: 0 hr 29 min 8 sec) 
Heartbeat CPU 0 instructions: 90000003 cycles: 47434065 heartbeat IPC: 1.34531 cumulative IPC: 1.3405 (Simulation time: 0 hr 30 min 36 sec) 
Heartbeat CPU 0 instructions: 100000000 cycles: 54838894 heartbeat IPC: 1.35047 cumulative IPC: 1.34248 (Simulation time: 0 hr 31 min 18 sec) 
Finished CPU 0 instructions: 50000000 cycles: 37244373 cumulative IPC: 1.34248 (Simulation time: 0 hr 31 min 18 sec) 

ChampSim completed all CPUs

Region of Interest Statistics

CPU 0 cumulative IPC: 1.34248 instructions: 50000000 cycles: 37244373
L1D TOTAL     ACCESS:   19501431  HIT:   17597095  MISS:    1904336
L1D LOAD      ACCESS:    6758501  HIT:    5885280  MISS:     873221
L1D RFO       ACCESS:    6326294  HIT:    6035000  MISS:     291294
L1D PREFETCH  ACCESS:    6416636  HIT:    5676815  MISS:     739821
L1D WRITEBACK ACCESS:          0  HIT:          0  MISS:          0
L1D PREFETCH  REQUESTED:    6819769  ISSUED:    6705428  USEFUL:     174059  USELESS:     565767
L1D AVERAGE MISS LATENCY: 22.8466 cycles
L1I TOTAL     ACCESS:   17273439  HIT:   13635563  MISS:    3637876
L1I LOAD      ACCESS:    9733961  HIT:    9696500  MISS:      37461
L1I RFO       ACCESS:          0  HIT:          0  MISS:          0
L1I PREFETCH  ACCESS:    7539478  HIT:    3939063  MISS:    3600415
L1I WRITEBACK ACCESS:          0  HIT:          0  MISS:          0
L1I PREFETCH  REQUESTED:    8041221  ISSUED:    7868267  USEFUL:    3024245  USELESS:     576180
L1I AVERAGE MISS LATENCY: 18.0426 cycles
L2C TOTAL     ACCESS:    7936294  HIT:    7281668  MISS:     654626
L2C LOAD      ACCESS:     859895  HIT:     726921  MISS:     132974
L2C RFO       ACCESS:     289472  HIT:     242126  MISS:      47346
L2C PREFETCH  ACCESS:    6170007  HIT:    5697363  MISS:     472644
L2C WRITEBACK ACCESS:     616920  HIT:     615258  MISS:       1662
L2C PREFETCH  REQUESTED:    5735337  ISSUED:    5717970  USEFUL:       5044  USELESS:     466966
L2C AVERAGE MISS LATENCY: 43.9152 cycles
LLC TOTAL     ACCESS:    2280001  HIT:    2200024  MISS:      79977
LLC LOAD      ACCESS:     132940  HIT:     114269  MISS:      18671
LLC RFO       ACCESS:      47345  HIT:      43195  MISS:       4150
LLC PREFETCH  ACCESS:    2010387  HIT:    1953770  MISS:      56617
LLC WRITEBACK ACCESS:      89329  HIT:      88790  MISS:        539
LLC PREFETCH  REQUESTED:          0  ISSUED:          0  USEFUL:       2468  USELESS:      53828
LLC AVERAGE MISS LATENCY: 159.945 cycles
Major fault: 0 Minor fault: 6047
CPU 0 L1D next line prefetcher final stats

DRAM Statistics
 CHANNEL 0
 RQ ROW_BUFFER_HIT:      21140  ROW_BUFFER_MISS:      58294
 DBUS_CONGESTED:      31671
 WQ ROW_BUFFER_HIT:        780  ROW_BUFFER_MISS:       5136  FULL:          0

 AVG_CONGESTED_CYCLE: 5

CPU 0 Branch Prediction Accuracy: 99.6894% MPKI: 0.58048 Average ROB Occupancy at Mispredict: 141.259

Branch types
NOT_BRANCH: 40655738 81.3115%
BRANCH_DIRECT_JUMP: 546483 1.09297%
BRANCH_INDIRECT: 172433 0.344866%
BRANCH_CONDITIONAL: 6207602 12.4152%
BRANCH_DIRECT_CALL: 1018499 2.037%
BRANCH_INDIRECT_CALL: 190373 0.380746%
BRANCH_RETURN: 1208856 2.41771%
BRANCH_OTHER: 0 0%

