Initialize SIGNATURE TABLE
ST_SET: 1
ST_WAY: 256
ST_TAG_BIT: 16
ST_TAG_MASK: ffff

Initialize PATTERN TABLE
PT_SET: 512
PT_WAY: 4
SIG_DELTA_BIT: 7
C_SIG_BIT: 4
C_DELTA_BIT: 4

Initialize PREFETCH FILTER
FILTER_SET: 1024

*** ChampSim Multicore Out-of-Order Simulator ***

Warmup Instructions: 50000000
Simulation Instructions: 50000000
Number of CPUs: 1
LLC sets: 2048
LLC ways: 16
Off-chip DRAM Size: 4096 MB Channels: 1 Width: 64-bit Data Rate: 3200 MT/s

CPU 0 runs /home/ykhodke/ChampSim/dpc3_traces/server_038.champsimtrace.xz
LHT KB: 126.25
SCC KB: 1.56
Total KB: 127.81
CPU 0 L1D next line prefetcher
Heartbeat CPU 0 instructions: 10000001 cycles: 3322824 heartbeat IPC: 3.00949 cumulative IPC: 3.00949 (Simulation time: 0 hr 3 min 6 sec) 
Heartbeat CPU 0 instructions: 20000003 cycles: 6648413 heartbeat IPC: 3.00699 cumulative IPC: 3.00824 (Simulation time: 0 hr 6 min 13 sec) 
Heartbeat CPU 0 instructions: 30000003 cycles: 9970415 heartbeat IPC: 3.01023 cumulative IPC: 3.0089 (Simulation time: 0 hr 9 min 19 sec) 
Heartbeat CPU 0 instructions: 40000001 cycles: 13296583 heartbeat IPC: 3.00646 cumulative IPC: 3.00829 (Simulation time: 0 hr 12 min 32 sec) 
Heartbeat CPU 0 instructions: 50000001 cycles: 16620613 heartbeat IPC: 3.0084 cumulative IPC: 3.00831 (Simulation time: 0 hr 15 min 42 sec) 

Warmup complete CPU 0 instructions: 50000001 cycles: 16620613 (Simulation time: 0 hr 15 min 42 sec) 

Heartbeat CPU 0 instructions: 60000002 cycles: 23058879 heartbeat IPC: 1.55321 cumulative IPC: 1.55321 (Simulation time: 0 hr 19 min 30 sec) 
Heartbeat CPU 0 instructions: 70000001 cycles: 29459513 heartbeat IPC: 1.56235 cumulative IPC: 1.55777 (Simulation time: 0 hr 22 min 49 sec) 
Heartbeat CPU 0 instructions: 80000000 cycles: 35877155 heartbeat IPC: 1.5582 cumulative IPC: 1.55791 (Simulation time: 0 hr 25 min 54 sec) 
Heartbeat CPU 0 instructions: 90000001 cycles: 42296803 heartbeat IPC: 1.55772 cumulative IPC: 1.55786 (Simulation time: 0 hr 28 min 31 sec) 
*** Reached end of trace for Core: 0 Repeating trace: /home/ykhodke/ChampSim/dpc3_traces/server_038.champsimtrace.xz
Heartbeat CPU 0 instructions: 100000002 cycles: 48723361 heartbeat IPC: 1.55604 cumulative IPC: 1.5575 (Simulation time: 0 hr 30 min 15 sec) 
Finished CPU 0 instructions: 50000001 cycles: 32102748 cumulative IPC: 1.5575 (Simulation time: 0 hr 30 min 15 sec) 

ChampSim completed all CPUs

Region of Interest Statistics

CPU 0 cumulative IPC: 1.5575 instructions: 50000001 cycles: 32102748
L1D TOTAL     ACCESS:   18724190  HIT:   17741801  MISS:     982389
L1D LOAD      ACCESS:    6375564  HIT:    5882782  MISS:     492782
L1D RFO       ACCESS:    6211306  HIT:    6146601  MISS:      64705
L1D PREFETCH  ACCESS:    6137320  HIT:    5712418  MISS:     424902
L1D WRITEBACK ACCESS:          0  HIT:          0  MISS:          0
L1D PREFETCH  REQUESTED:    6412229  ISSUED:    6258942  USEFUL:     118193  USELESS:     306712
L1D AVERAGE MISS LATENCY: 29.3465 cycles
L1I TOTAL     ACCESS:   27288464  HIT:   21733414  MISS:    5555050
L1I LOAD      ACCESS:    9370300  HIT:    8929284  MISS:     441016
L1I RFO       ACCESS:          0  HIT:          0  MISS:          0
L1I PREFETCH  ACCESS:   17918164  HIT:   12804130  MISS:    5114034
L1I WRITEBACK ACCESS:          0  HIT:          0  MISS:          0
L1I PREFETCH  REQUESTED:   20182658  ISSUED:   20182658  USEFUL:    3699855  USELESS:    1414145
L1I AVERAGE MISS LATENCY: 13.6603 cycles
L2C TOTAL     ACCESS:    9470731  HIT:    9157832  MISS:     312899
L2C LOAD      ACCESS:     575839  HIT:     433961  MISS:     141878
L2C RFO       ACCESS:      64416  HIT:      36303  MISS:      28113
L2C PREFETCH  ACCESS:    8538736  HIT:    8396578  MISS:     142158
L2C WRITEBACK ACCESS:     291740  HIT:     290990  MISS:        750
L2C PREFETCH  REQUESTED:    5168004  ISSUED:    5160910  USEFUL:       4982  USELESS:     137073
L2C AVERAGE MISS LATENCY: 45.8055 cycles
LLC TOTAL     ACCESS:    1055504  HIT:    1007166  MISS:      48338
LLC LOAD      ACCESS:     141876  HIT:     128939  MISS:      12937
LLC RFO       ACCESS:      28113  HIT:      22684  MISS:       5429
LLC PREFETCH  ACCESS:     741026  HIT:     711489  MISS:      29537
LLC WRITEBACK ACCESS:     144489  HIT:     144054  MISS:        435
LLC PREFETCH  REQUESTED:          0  ISSUED:          0  USEFUL:       1930  USELESS:      26151
LLC AVERAGE MISS LATENCY: 165.779 cycles
Major fault: 0 Minor fault: 5533
CPU 0 L1D next line prefetcher final stats

DRAM Statistics
 CHANNEL 0
 RQ ROW_BUFFER_HIT:       7017  ROW_BUFFER_MISS:      40880
 DBUS_CONGESTED:      20405
 WQ ROW_BUFFER_HIT:       1173  ROW_BUFFER_MISS:      11165  FULL:          0

 AVG_CONGESTED_CYCLE: 4

CPU 0 Branch Prediction Accuracy: 99.9279% MPKI: 0.12968 Average ROB Occupancy at Mispredict: 216.469

Branch types
NOT_BRANCH: 41006333 82.0127%
BRANCH_DIRECT_JUMP: 541914 1.08383%
BRANCH_INDIRECT: 59690 0.11938%
BRANCH_CONDITIONAL: 5915848 11.8317%
BRANCH_DIRECT_CALL: 1003589 2.00718%
BRANCH_INDIRECT_CALL: 234499 0.468998%
BRANCH_RETURN: 1238071 2.47614%
BRANCH_OTHER: 0 0%

