Initialize SIGNATURE TABLE
ST_SET: 1
ST_WAY: 256
ST_TAG_BIT: 16
ST_TAG_MASK: ffff

Initialize PATTERN TABLE
PT_SET: 512
PT_WAY: 4
SIG_DELTA_BIT: 7
C_SIG_BIT: 4
C_DELTA_BIT: 4

Initialize PREFETCH FILTER
FILTER_SET: 1024

*** ChampSim Multicore Out-of-Order Simulator ***

Warmup Instructions: 50000000
Simulation Instructions: 50000000
Number of CPUs: 1
LLC sets: 2048
LLC ways: 16
Off-chip DRAM Size: 4096 MB Channels: 1 Width: 64-bit Data Rate: 3200 MT/s

CPU 0 runs /home/ykhodke/ChampSim/dpc3_traces/server_011.champsimtrace.xz
L1I D-JOLT instruction prefetcher has been constructed!
CPU 0 L1D next line prefetcher
Heartbeat CPU 0 instructions: 10000002 cycles: 3202549 heartbeat IPC: 3.12251 cumulative IPC: 3.12251 (Simulation time: 0 hr 3 min 13 sec) 
Heartbeat CPU 0 instructions: 20000001 cycles: 6410802 heartbeat IPC: 3.11696 cumulative IPC: 3.11973 (Simulation time: 0 hr 6 min 23 sec) 
Heartbeat CPU 0 instructions: 30000001 cycles: 9663422 heartbeat IPC: 3.07444 cumulative IPC: 3.10449 (Simulation time: 0 hr 9 min 49 sec) 
Heartbeat CPU 0 instructions: 40000003 cycles: 12863347 heartbeat IPC: 3.12507 cumulative IPC: 3.10961 (Simulation time: 0 hr 13 min 10 sec) 
Heartbeat CPU 0 instructions: 50000000 cycles: 16070144 heartbeat IPC: 3.11838 cumulative IPC: 3.11136 (Simulation time: 0 hr 16 min 31 sec) 

Warmup complete CPU 0 instructions: 50000004 cycles: 16070145 (Simulation time: 0 hr 16 min 31 sec) 

Heartbeat CPU 0 instructions: 60000002 cycles: 23454912 heartbeat IPC: 1.35414 cumulative IPC: 1.35414 (Simulation time: 0 hr 19 min 47 sec) 
Heartbeat CPU 0 instructions: 70000001 cycles: 31271115 heartbeat IPC: 1.27939 cumulative IPC: 1.31571 (Simulation time: 0 hr 23 min 1 sec) 
Heartbeat CPU 0 instructions: 80000003 cycles: 40176615 heartbeat IPC: 1.1229 cumulative IPC: 1.24448 (Simulation time: 0 hr 25 min 13 sec) 
Heartbeat CPU 0 instructions: 90000001 cycles: 47769206 heartbeat IPC: 1.31707 cumulative IPC: 1.26187 (Simulation time: 0 hr 27 min 30 sec) 
Heartbeat CPU 0 instructions: 100000000 cycles: 55128706 heartbeat IPC: 1.35879 cumulative IPC: 1.28013 (Simulation time: 0 hr 29 min 12 sec) 
Finished CPU 0 instructions: 50000003 cycles: 39058573 cumulative IPC: 1.28013 (Simulation time: 0 hr 29 min 12 sec) 

ChampSim completed all CPUs

Region of Interest Statistics

CPU 0 cumulative IPC: 1.28013 instructions: 50000003 cycles: 39058573
L1D TOTAL     ACCESS:   18168148  HIT:   17137052  MISS:    1031096
L1D LOAD      ACCESS:    6787004  HIT:    6305474  MISS:     481530
L1D RFO       ACCESS:    4833671  HIT:    4751705  MISS:      81966
L1D PREFETCH  ACCESS:    6547473  HIT:    6079873  MISS:     467600
L1D WRITEBACK ACCESS:          0  HIT:          0  MISS:          0
L1D PREFETCH  REQUESTED:    6823779  ISSUED:    6731261  USEFUL:     137353  USELESS:     330243
L1D AVERAGE MISS LATENCY: 41.2421 cycles
L1I TOTAL     ACCESS:   16327673  HIT:   14469062  MISS:    1858611
L1I LOAD      ACCESS:    8889743  HIT:    8792411  MISS:      97332
L1I RFO       ACCESS:          0  HIT:          0  MISS:          0
L1I PREFETCH  ACCESS:    7437930  HIT:    5676651  MISS:    1761279
L1I WRITEBACK ACCESS:          0  HIT:          0  MISS:          0
L1I PREFETCH  REQUESTED:    8299942  ISSUED:    7832581  USEFUL:    1240173  USELESS:     521080
L1I AVERAGE MISS LATENCY: 31.1739 cycles
L2C TOTAL     ACCESS:    3816389  HIT:    2653374  MISS:    1163015
L2C LOAD      ACCESS:     524125  HIT:     276379  MISS:     247746
L2C RFO       ACCESS:      80148  HIT:      33532  MISS:      46616
L2C PREFETCH  ACCESS:    2944012  HIT:    2077681  MISS:     866331
L2C WRITEBACK ACCESS:     268104  HIT:     265782  MISS:       2322
L2C PREFETCH  REQUESTED:    2867750  ISSUED:    2864076  USEFUL:      28940  USELESS:     837470
L2C AVERAGE MISS LATENCY: 50.2585 cycles
LLC TOTAL     ACCESS:    2176789  HIT:    1996510  MISS:     180279
LLC LOAD      ACCESS:     247642  HIT:     219613  MISS:      28029
LLC RFO       ACCESS:      46610  HIT:      33298  MISS:      13312
LLC PREFETCH  ACCESS:    1726526  HIT:    1587968  MISS:     138558
LLC WRITEBACK ACCESS:     156011  HIT:     155631  MISS:        380
LLC PREFETCH  REQUESTED:          0  ISSUED:          0  USEFUL:      18106  USELESS:     120778
LLC AVERAGE MISS LATENCY: 176.531 cycles
Major fault: 0 Minor fault: 6982
CPU 0 L1D next line prefetcher final stats

DRAM Statistics
 CHANNEL 0
 RQ ROW_BUFFER_HIT:      32795  ROW_BUFFER_MISS:     147091
 DBUS_CONGESTED:      76894
 WQ ROW_BUFFER_HIT:      12461  ROW_BUFFER_MISS:      49690  FULL:          0

 AVG_CONGESTED_CYCLE: 5

CPU 0 Branch Prediction Accuracy: 97.5565% MPKI: 4.59006 Average ROB Occupancy at Mispredict: 62.6646

Branch types
NOT_BRANCH: 40607199 81.2144%
BRANCH_DIRECT_JUMP: 451601 0.903202%
BRANCH_INDIRECT: 151580 0.30316%
BRANCH_CONDITIONAL: 7041635 14.0833%
BRANCH_DIRECT_CALL: 647827 1.29565%
BRANCH_INDIRECT_CALL: 211373 0.422746%
BRANCH_RETURN: 888439 1.77688%
BRANCH_OTHER: 0 0%

