Initialize SIGNATURE TABLE
ST_SET: 1
ST_WAY: 256
ST_TAG_BIT: 16
ST_TAG_MASK: ffff

Initialize PATTERN TABLE
PT_SET: 512
PT_WAY: 4
SIG_DELTA_BIT: 7
C_SIG_BIT: 4
C_DELTA_BIT: 4

Initialize PREFETCH FILTER
FILTER_SET: 1024

*** ChampSim Multicore Out-of-Order Simulator ***

Warmup Instructions: 50000000
Simulation Instructions: 50000000
Number of CPUs: 1
LLC sets: 2048
LLC ways: 16
Off-chip DRAM Size: 4096 MB Channels: 1 Width: 64-bit Data Rate: 3200 MT/s

CPU 0 runs /home/ykhodke/ChampSim/dpc3_traces/server_013.champsimtrace.xz
LHT KB: 63.12
SCC KB: 1.56
Total KB: 64.69
CPU 0 L1D next line prefetcher
Heartbeat CPU 0 instructions: 10000000 cycles: 3220285 heartbeat IPC: 3.10532 cumulative IPC: 3.10532 (Simulation time: 0 hr 3 min 6 sec) 
Heartbeat CPU 0 instructions: 20000001 cycles: 6429614 heartbeat IPC: 3.11592 cumulative IPC: 3.11061 (Simulation time: 0 hr 6 min 17 sec) 
Heartbeat CPU 0 instructions: 30000002 cycles: 9642769 heartbeat IPC: 3.11221 cumulative IPC: 3.11114 (Simulation time: 0 hr 9 min 25 sec) 
Heartbeat CPU 0 instructions: 40000002 cycles: 12851754 heartbeat IPC: 3.11625 cumulative IPC: 3.11242 (Simulation time: 0 hr 12 min 30 sec) 
Heartbeat CPU 0 instructions: 50000000 cycles: 16060945 heartbeat IPC: 3.11605 cumulative IPC: 3.11314 (Simulation time: 0 hr 15 min 40 sec) 

Warmup complete CPU 0 instructions: 50000004 cycles: 16060946 (Simulation time: 0 hr 15 min 40 sec) 

Heartbeat CPU 0 instructions: 60000000 cycles: 24326406 heartbeat IPC: 1.20985 cumulative IPC: 1.20985 (Simulation time: 0 hr 18 min 46 sec) 
Heartbeat CPU 0 instructions: 70000002 cycles: 32829541 heartbeat IPC: 1.17604 cumulative IPC: 1.19271 (Simulation time: 0 hr 21 min 19 sec) 
Heartbeat CPU 0 instructions: 80000003 cycles: 40734654 heartbeat IPC: 1.265 cumulative IPC: 1.21587 (Simulation time: 0 hr 23 min 49 sec) 
Heartbeat CPU 0 instructions: 90000003 cycles: 48833607 heartbeat IPC: 1.23473 cumulative IPC: 1.22053 (Simulation time: 0 hr 26 min 21 sec) 
Heartbeat CPU 0 instructions: 100000000 cycles: 56956233 heartbeat IPC: 1.23113 cumulative IPC: 1.22263 (Simulation time: 0 hr 28 min 22 sec) 
Finished CPU 0 instructions: 50000000 cycles: 40895288 cumulative IPC: 1.22263 (Simulation time: 0 hr 28 min 22 sec) 

ChampSim completed all CPUs

Region of Interest Statistics

CPU 0 cumulative IPC: 1.22263 instructions: 50000000 cycles: 40895288
L1D TOTAL     ACCESS:   17551919  HIT:   16485135  MISS:    1066784
L1D LOAD      ACCESS:    6428769  HIT:    5929355  MISS:     499414
L1D RFO       ACCESS:    4935790  HIT:    4855434  MISS:      80356
L1D PREFETCH  ACCESS:    6187360  HIT:    5700346  MISS:     487014
L1D WRITEBACK ACCESS:          0  HIT:          0  MISS:          0
L1D PREFETCH  REQUESTED:    6465766  ISSUED:    6368922  USEFUL:     135136  USELESS:     351886
L1D AVERAGE MISS LATENCY: 45.1634 cycles
L1I TOTAL     ACCESS:   18055088  HIT:   15463564  MISS:    2591524
L1I LOAD      ACCESS:    8622406  HIT:    8160466  MISS:     461940
L1I RFO       ACCESS:          0  HIT:          0  MISS:          0
L1I PREFETCH  ACCESS:    9432682  HIT:    7303098  MISS:    2129584
L1I WRITEBACK ACCESS:          0  HIT:          0  MISS:          0
L1I PREFETCH  REQUESTED:   16444217  ISSUED:   16444217  USEFUL:    1045744  USELESS:    1083801
L1I AVERAGE MISS LATENCY: 26.8847 cycles
L2C TOTAL     ACCESS:    4755273  HIT:    3135045  MISS:    1620228
L2C LOAD      ACCESS:     562706  HIT:     239618  MISS:     323088
L2C RFO       ACCESS:      78837  HIT:      27642  MISS:      51195
L2C PREFETCH  ACCESS:    3837941  HIT:    2595116  MISS:    1242825
L2C WRITEBACK ACCESS:     275789  HIT:     272669  MISS:       3120
L2C PREFETCH  REQUESTED:    3351817  ISSUED:    3347135  USEFUL:      34492  USELESS:    1207837
L2C AVERAGE MISS LATENCY: 49.9771 cycles
LLC TOTAL     ACCESS:    2699145  HIT:    2476186  MISS:     222959
LLC LOAD      ACCESS:     322962  HIT:     292943  MISS:      30019
LLC RFO       ACCESS:      51173  HIT:      39143  MISS:      12030
LLC PREFETCH  ACCESS:    2139825  HIT:    1959156  MISS:     180669
LLC WRITEBACK ACCESS:     185185  HIT:     184944  MISS:        241
LLC PREFETCH  REQUESTED:          0  ISSUED:          0  USEFUL:      12808  USELESS:     166496
LLC AVERAGE MISS LATENCY: 172.424 cycles
Major fault: 0 Minor fault: 6229
CPU 0 L1D next line prefetcher final stats

DRAM Statistics
 CHANNEL 0
 RQ ROW_BUFFER_HIT:      41384  ROW_BUFFER_MISS:     181285
 DBUS_CONGESTED:      96368
 WQ ROW_BUFFER_HIT:      13280  ROW_BUFFER_MISS:      53803  FULL:          0

 AVG_CONGESTED_CYCLE: 5

CPU 0 Branch Prediction Accuracy: 99.4114% MPKI: 1.0933 Average ROB Occupancy at Mispredict: 108.597

Branch types
NOT_BRANCH: 40713277 81.4266%
BRANCH_DIRECT_JUMP: 463701 0.927402%
BRANCH_INDIRECT: 146544 0.293088%
BRANCH_CONDITIONAL: 6981956 13.9639%
BRANCH_DIRECT_CALL: 665005 1.33001%
BRANCH_INDIRECT_CALL: 165152 0.330304%
BRANCH_RETURN: 864314 1.72863%
BRANCH_OTHER: 0 0%

