Initialize SIGNATURE TABLE
ST_SET: 1
ST_WAY: 256
ST_TAG_BIT: 16
ST_TAG_MASK: ffff

Initialize PATTERN TABLE
PT_SET: 512
PT_WAY: 4
SIG_DELTA_BIT: 7
C_SIG_BIT: 4
C_DELTA_BIT: 4

Initialize PREFETCH FILTER
FILTER_SET: 1024

*** ChampSim Multicore Out-of-Order Simulator ***

Warmup Instructions: 50000000
Simulation Instructions: 50000000
Number of CPUs: 1
LLC sets: 2048
LLC ways: 16
Off-chip DRAM Size: 4096 MB Channels: 1 Width: 64-bit Data Rate: 3200 MT/s

CPU 0 runs /home/ykhodke/ChampSim/dpc3_traces/server_015.champsimtrace.xz
L1I D-JOLT instruction prefetcher has been constructed!
CPU 0 L1D next line prefetcher
Heartbeat CPU 0 instructions: 10000002 cycles: 3519423 heartbeat IPC: 2.84138 cumulative IPC: 2.84138 (Simulation time: 0 hr 2 min 38 sec) 
Heartbeat CPU 0 instructions: 20000001 cycles: 7107154 heartbeat IPC: 2.78728 cumulative IPC: 2.81407 (Simulation time: 0 hr 5 min 57 sec) 
Heartbeat CPU 0 instructions: 30000001 cycles: 10646144 heartbeat IPC: 2.82566 cumulative IPC: 2.81792 (Simulation time: 0 hr 8 min 50 sec) 
Heartbeat CPU 0 instructions: 40000002 cycles: 14194185 heartbeat IPC: 2.81846 cumulative IPC: 2.81806 (Simulation time: 0 hr 11 min 52 sec) 
Heartbeat CPU 0 instructions: 50000002 cycles: 17742445 heartbeat IPC: 2.81828 cumulative IPC: 2.8181 (Simulation time: 0 hr 15 min 0 sec) 

Warmup complete CPU 0 instructions: 50000002 cycles: 17742445 (Simulation time: 0 hr 15 min 0 sec) 

Heartbeat CPU 0 instructions: 60000002 cycles: 24040488 heartbeat IPC: 1.58779 cumulative IPC: 1.58779 (Simulation time: 0 hr 18 min 8 sec) 
Heartbeat CPU 0 instructions: 70000003 cycles: 30349780 heartbeat IPC: 1.58496 cumulative IPC: 1.58638 (Simulation time: 0 hr 21 min 12 sec) 
Heartbeat CPU 0 instructions: 80000000 cycles: 36658960 heartbeat IPC: 1.58499 cumulative IPC: 1.58592 (Simulation time: 0 hr 24 min 16 sec) 
Heartbeat CPU 0 instructions: 90000000 cycles: 42970717 heartbeat IPC: 1.58434 cumulative IPC: 1.58552 (Simulation time: 0 hr 27 min 1 sec) 
Heartbeat CPU 0 instructions: 100000002 cycles: 49280704 heartbeat IPC: 1.58479 cumulative IPC: 1.58538 (Simulation time: 0 hr 28 min 52 sec) 
Finished CPU 0 instructions: 50000000 cycles: 31538259 cumulative IPC: 1.58538 (Simulation time: 0 hr 28 min 52 sec) 

ChampSim completed all CPUs

Region of Interest Statistics

CPU 0 cumulative IPC: 1.58538 instructions: 50000000 cycles: 31538259
L1D TOTAL     ACCESS:   21827884  HIT:   21811112  MISS:      16772
L1D LOAD      ACCESS:    6691115  HIT:    6690580  MISS:        535
L1D RFO       ACCESS:    8561369  HIT:    8561273  MISS:         96
L1D PREFETCH  ACCESS:    6575400  HIT:    6559259  MISS:      16141
L1D WRITEBACK ACCESS:          0  HIT:          0  MISS:          0
L1D PREFETCH  REQUESTED:    6691173  ISSUED:    6579810  USEFUL:         83  USELESS:      16055
L1D AVERAGE MISS LATENCY: 16.6393 cycles
L1I TOTAL     ACCESS:   20744747  HIT:   16410671  MISS:    4334076
L1I LOAD      ACCESS:    9741985  HIT:    9674571  MISS:      67414
L1I RFO       ACCESS:          0  HIT:          0  MISS:          0
L1I PREFETCH  ACCESS:   11002762  HIT:    6736100  MISS:    4266662
L1I WRITEBACK ACCESS:          0  HIT:          0  MISS:          0
L1I PREFETCH  REQUESTED:   11628808  ISSUED:   11419411  USEFUL:    2884448  USELESS:    1382197
L1I AVERAGE MISS LATENCY: 14.3763 cycles
L2C TOTAL     ACCESS:    6070267  HIT:    6069982  MISS:        285
L2C LOAD      ACCESS:      57514  HIT:      57446  MISS:         68
L2C RFO       ACCESS:         94  HIT:         87  MISS:          7
L2C PREFETCH  ACCESS:    6012309  HIT:    6012100  MISS:        209
L2C WRITEBACK ACCESS:        350  HIT:        349  MISS:          1
L2C PREFETCH  REQUESTED:    4562702  ISSUED:    4560408  USEFUL:        121  USELESS:        111
L2C AVERAGE MISS LATENCY: 169.811 cycles
LLC TOTAL     ACCESS:     826954  HIT:     826221  MISS:        733
LLC LOAD      ACCESS:         68  HIT:         55  MISS:         13
LLC RFO       ACCESS:          7  HIT:          5  MISS:          2
LLC PREFETCH  ACCESS:     826793  HIT:     826076  MISS:        717
LLC WRITEBACK ACCESS:         86  HIT:         85  MISS:          1
LLC PREFETCH  REQUESTED:          0  ISSUED:          0  USEFUL:         10  USELESS:        177
LLC AVERAGE MISS LATENCY: 623.102 cycles
Major fault: 0 Minor fault: 1892
CPU 0 L1D next line prefetcher final stats

DRAM Statistics
 CHANNEL 0
 RQ ROW_BUFFER_HIT:        167  ROW_BUFFER_MISS:        565
 DBUS_CONGESTED:        485
 WQ ROW_BUFFER_HIT:         74  ROW_BUFFER_MISS:        439  FULL:          0

 AVG_CONGESTED_CYCLE: 6

CPU 0 Branch Prediction Accuracy: 99.9085% MPKI: 0.15428 Average ROB Occupancy at Mispredict: 296.009

Branch types
NOT_BRANCH: 41573136 83.1463%
BRANCH_DIRECT_JUMP: 436254 0.872508%
BRANCH_INDIRECT: 0 0%
BRANCH_CONDITIONAL: 5395897 10.7918%
BRANCH_DIRECT_CALL: 1173391 2.34678%
BRANCH_INDIRECT_CALL: 123911 0.247822%
BRANCH_RETURN: 1297311 2.59462%
BRANCH_OTHER: 0 0%

