Initialize SIGNATURE TABLE
ST_SET: 1
ST_WAY: 256
ST_TAG_BIT: 16
ST_TAG_MASK: ffff

Initialize PATTERN TABLE
PT_SET: 512
PT_WAY: 4
SIG_DELTA_BIT: 7
C_SIG_BIT: 4
C_DELTA_BIT: 4

Initialize PREFETCH FILTER
FILTER_SET: 1024

*** ChampSim Multicore Out-of-Order Simulator ***

Warmup Instructions: 50000000
Simulation Instructions: 50000000
Number of CPUs: 1
LLC sets: 2048
LLC ways: 16
Off-chip DRAM Size: 4096 MB Channels: 1 Width: 64-bit Data Rate: 3200 MT/s

CPU 0 runs /home/ykhodke/ChampSim/dpc3_traces/server_018.champsimtrace.xz
LHT KB: 126.25
SCC KB: 1.56
Total KB: 127.81
CPU 0 L1D next line prefetcher
Heartbeat CPU 0 instructions: 10000003 cycles: 3617571 heartbeat IPC: 2.76429 cumulative IPC: 2.76429 (Simulation time: 0 hr 3 min 11 sec) 
Heartbeat CPU 0 instructions: 20000001 cycles: 7240159 heartbeat IPC: 2.76046 cumulative IPC: 2.76237 (Simulation time: 0 hr 6 min 24 sec) 
Heartbeat CPU 0 instructions: 30000003 cycles: 10716162 heartbeat IPC: 2.87687 cumulative IPC: 2.79951 (Simulation time: 0 hr 9 min 43 sec) 
Heartbeat CPU 0 instructions: 40000000 cycles: 14228867 heartbeat IPC: 2.84681 cumulative IPC: 2.81119 (Simulation time: 0 hr 13 min 29 sec) 
Heartbeat CPU 0 instructions: 50000003 cycles: 17847146 heartbeat IPC: 2.76375 cumulative IPC: 2.80157 (Simulation time: 0 hr 17 min 9 sec) 

Warmup complete CPU 0 instructions: 50000003 cycles: 17847146 (Simulation time: 0 hr 17 min 9 sec) 

Heartbeat CPU 0 instructions: 60000000 cycles: 35889408 heartbeat IPC: 0.554254 cumulative IPC: 0.554254 (Simulation time: 0 hr 21 min 15 sec) 
Heartbeat CPU 0 instructions: 70000001 cycles: 54119129 heartbeat IPC: 0.548555 cumulative IPC: 0.55139 (Simulation time: 0 hr 25 min 27 sec) 
Heartbeat CPU 0 instructions: 80000003 cycles: 72140037 heartbeat IPC: 0.554911 cumulative IPC: 0.552559 (Simulation time: 0 hr 28 min 56 sec) 
Heartbeat CPU 0 instructions: 90000002 cycles: 90295272 heartbeat IPC: 0.550805 cumulative IPC: 0.552119 (Simulation time: 0 hr 30 min 41 sec) 
Heartbeat CPU 0 instructions: 100000001 cycles: 108493745 heartbeat IPC: 0.549497 cumulative IPC: 0.551593 (Simulation time: 0 hr 31 min 22 sec) 
Finished CPU 0 instructions: 50000002 cycles: 90646600 cumulative IPC: 0.551593 (Simulation time: 0 hr 31 min 22 sec) 

ChampSim completed all CPUs

Region of Interest Statistics

CPU 0 cumulative IPC: 0.551593 instructions: 50000002 cycles: 90646600
L1D TOTAL     ACCESS:   18653535  HIT:   16435719  MISS:    2217816
L1D LOAD      ACCESS:    7046776  HIT:    6306616  MISS:     740160
L1D RFO       ACCESS:    5854132  HIT:    4901683  MISS:     952449
L1D PREFETCH  ACCESS:    5752627  HIT:    5227420  MISS:     525207
L1D WRITEBACK ACCESS:          0  HIT:          0  MISS:          0
L1D PREFETCH  REQUESTED:    7089004  ISSUED:    6886586  USEFUL:     185440  USELESS:     339856
L1D AVERAGE MISS LATENCY: 175.565 cycles
L1I TOTAL     ACCESS:   24466340  HIT:   21142245  MISS:    3324095
L1I LOAD      ACCESS:   10089518  HIT:    9878404  MISS:     211114
L1I RFO       ACCESS:          0  HIT:          0  MISS:          0
L1I PREFETCH  ACCESS:   14376822  HIT:   11263841  MISS:    3112981
L1I WRITEBACK ACCESS:          0  HIT:          0  MISS:          0
L1I PREFETCH  REQUESTED:   15973839  ISSUED:   15973839  USEFUL:    2216699  USELESS:     896266
L1I AVERAGE MISS LATENCY: 16.0592 cycles
L2C TOTAL     ACCESS:    7919637  HIT:    6064601  MISS:    1855036
L2C LOAD      ACCESS:     534291  HIT:     268210  MISS:     266081
L2C RFO       ACCESS:     951728  HIT:      20269  MISS:     931459
L2C PREFETCH  ACCESS:    5263573  HIT:    4608191  MISS:     655382
L2C WRITEBACK ACCESS:    1170045  HIT:    1167931  MISS:       2114
L2C PREFETCH  REQUESTED:    3631794  ISSUED:    3630884  USEFUL:      23973  USELESS:     632155
L2C AVERAGE MISS LATENCY: 216.728 cycles
LLC TOTAL     ACCESS:    3886615  HIT:    2475658  MISS:    1410957
LLC LOAD      ACCESS:     266073  HIT:     165438  MISS:     100635
LLC RFO       ACCESS:     931459  HIT:     138373  MISS:     793086
LLC PREFETCH  ACCESS:    1588366  HIT:    1072887  MISS:     515479
LLC WRITEBACK ACCESS:    1100717  HIT:    1098960  MISS:       1757
LLC PREFETCH  REQUESTED:          0  ISSUED:          0  USEFUL:      26548  USELESS:     488901
LLC AVERAGE MISS LATENCY: 277.169 cycles
Major fault: 0 Minor fault: 22450
CPU 0 L1D next line prefetcher final stats

DRAM Statistics
 CHANNEL 0
 RQ ROW_BUFFER_HIT:     389272  ROW_BUFFER_MISS:    1019693
 DBUS_CONGESTED:    1396509
 WQ ROW_BUFFER_HIT:     279281  ROW_BUFFER_MISS:     613582  FULL:          0

 AVG_CONGESTED_CYCLE: 6

CPU 0 Branch Prediction Accuracy: 99.7114% MPKI: 0.47678 Average ROB Occupancy at Mispredict: 211.251

Branch types
NOT_BRANCH: 41741008 83.482%
BRANCH_DIRECT_JUMP: 458652 0.917304%
BRANCH_INDIRECT: 48282 0.096564%
BRANCH_CONDITIONAL: 5930881 11.8618%
BRANCH_DIRECT_CALL: 744230 1.48846%
BRANCH_INDIRECT_CALL: 166336 0.332672%
BRANCH_RETURN: 910589 1.82118%
BRANCH_OTHER: 0 0%

