Initialize SIGNATURE TABLE
ST_SET: 1
ST_WAY: 256
ST_TAG_BIT: 16
ST_TAG_MASK: ffff

Initialize PATTERN TABLE
PT_SET: 512
PT_WAY: 4
SIG_DELTA_BIT: 7
C_SIG_BIT: 4
C_DELTA_BIT: 4

Initialize PREFETCH FILTER
FILTER_SET: 1024

*** ChampSim Multicore Out-of-Order Simulator ***

Warmup Instructions: 50000000
Simulation Instructions: 50000000
Number of CPUs: 1
LLC sets: 2048
LLC ways: 16
Off-chip DRAM Size: 4096 MB Channels: 1 Width: 64-bit Data Rate: 3200 MT/s

CPU 0 runs /home/ykhodke/ChampSim/dpc3_traces/server_010.champsimtrace.xz
L1I D-JOLT instruction prefetcher has been constructed!
CPU 0 L1D next line prefetcher
Heartbeat CPU 0 instructions: 10000000 cycles: 3194775 heartbeat IPC: 3.13011 cumulative IPC: 3.13011 (Simulation time: 0 hr 3 min 7 sec) 
Heartbeat CPU 0 instructions: 20000002 cycles: 6387246 heartbeat IPC: 3.13237 cumulative IPC: 3.13124 (Simulation time: 0 hr 6 min 11 sec) 
Heartbeat CPU 0 instructions: 30000001 cycles: 9583503 heartbeat IPC: 3.12866 cumulative IPC: 3.13038 (Simulation time: 0 hr 9 min 17 sec) 
Heartbeat CPU 0 instructions: 40000000 cycles: 12775905 heartbeat IPC: 3.13244 cumulative IPC: 3.13089 (Simulation time: 0 hr 12 min 23 sec) 
Heartbeat CPU 0 instructions: 50000003 cycles: 15973459 heartbeat IPC: 3.12739 cumulative IPC: 3.13019 (Simulation time: 0 hr 15 min 27 sec) 

Warmup complete CPU 0 instructions: 50000003 cycles: 15973459 (Simulation time: 0 hr 15 min 27 sec) 

Heartbeat CPU 0 instructions: 60000001 cycles: 23213862 heartbeat IPC: 1.38114 cumulative IPC: 1.38114 (Simulation time: 0 hr 18 min 24 sec) 
Heartbeat CPU 0 instructions: 70000000 cycles: 30499891 heartbeat IPC: 1.37249 cumulative IPC: 1.3768 (Simulation time: 0 hr 21 min 19 sec) 
Heartbeat CPU 0 instructions: 80000003 cycles: 37835475 heartbeat IPC: 1.36322 cumulative IPC: 1.37224 (Simulation time: 0 hr 24 min 18 sec) 
Heartbeat CPU 0 instructions: 90000002 cycles: 44928742 heartbeat IPC: 1.40979 cumulative IPC: 1.38144 (Simulation time: 0 hr 27 min 8 sec) 
Heartbeat CPU 0 instructions: 100000003 cycles: 65557177 heartbeat IPC: 0.484768 cumulative IPC: 1.0084 (Simulation time: 0 hr 30 min 31 sec) 
Finished CPU 0 instructions: 50000000 cycles: 49583718 cumulative IPC: 1.0084 (Simulation time: 0 hr 30 min 31 sec) 

ChampSim completed all CPUs

Region of Interest Statistics

CPU 0 cumulative IPC: 1.0084 instructions: 50000000 cycles: 49583718
L1D TOTAL     ACCESS:   19875781  HIT:   16650590  MISS:    3225191
L1D LOAD      ACCESS:    7694309  HIT:    6101054  MISS:    1593255
L1D RFO       ACCESS:    4711225  HIT:    4616914  MISS:      94311
L1D PREFETCH  ACCESS:    7470247  HIT:    5932622  MISS:    1537625
L1D WRITEBACK ACCESS:          0  HIT:          0  MISS:          0
L1D PREFETCH  REQUESTED:    7726716  ISSUED:    7629984  USEFUL:     117075  USELESS:    1420521
L1D AVERAGE MISS LATENCY: 22.9937 cycles
L1I TOTAL     ACCESS:   17368559  HIT:   15569682  MISS:    1798877
L1I LOAD      ACCESS:    9972605  HIT:    9902152  MISS:      70453
L1I RFO       ACCESS:          0  HIT:          0  MISS:          0
L1I PREFETCH  ACCESS:    7395954  HIT:    5667530  MISS:    1728424
L1I WRITEBACK ACCESS:          0  HIT:          0  MISS:          0
L1I PREFETCH  REQUESTED:    8109180  ISSUED:    7793200  USEFUL:    1206513  USELESS:     521838
L1I AVERAGE MISS LATENCY: 30.4429 cycles
L2C TOTAL     ACCESS:    6490618  HIT:    5335332  MISS:    1155286
L2C LOAD      ACCESS:    1608499  HIT:    1370777  MISS:     237722
L2C RFO       ACCESS:      93284  HIT:      48202  MISS:      45082
L2C PREFETCH  ACCESS:    4523491  HIT:    3652163  MISS:     871328
L2C WRITEBACK ACCESS:     265344  HIT:     264190  MISS:       1154
L2C PREFETCH  REQUESTED:    5940538  ISSUED:    5937704  USEFUL:      22370  USELESS:     850141
L2C AVERAGE MISS LATENCY: 46.797 cycles
LLC TOTAL     ACCESS:    2382531  HIT:    2244772  MISS:     137759
LLC LOAD      ACCESS:     237634  HIT:     218937  MISS:      18697
LLC RFO       ACCESS:      45076  HIT:      35459  MISS:       9617
LLC PREFETCH  ACCESS:    1949428  HIT:    1840150  MISS:     109278
LLC WRITEBACK ACCESS:     150393  HIT:     150226  MISS:        167
LLC PREFETCH  REQUESTED:          0  ISSUED:          0  USEFUL:      10056  USELESS:     100515
LLC AVERAGE MISS LATENCY: 176.194 cycles
Major fault: 0 Minor fault: 5608
CPU 0 L1D next line prefetcher final stats

DRAM Statistics
 CHANNEL 0
 RQ ROW_BUFFER_HIT:      20413  ROW_BUFFER_MISS:     117166
 DBUS_CONGESTED:      59877
 WQ ROW_BUFFER_HIT:      10065  ROW_BUFFER_MISS:      43838  FULL:          0

 AVG_CONGESTED_CYCLE: 5

CPU 0 Branch Prediction Accuracy: 99.5528% MPKI: 0.89798 Average ROB Occupancy at Mispredict: 130.846

Branch types
NOT_BRANCH: 39958788 79.9176%
BRANCH_DIRECT_JUMP: 449946 0.899892%
BRANCH_INDIRECT: 140210 0.28042%
BRANCH_CONDITIONAL: 7679677 15.3594%
BRANCH_DIRECT_CALL: 701578 1.40316%
BRANCH_INDIRECT_CALL: 168971 0.337942%
BRANCH_RETURN: 900560 1.80112%
BRANCH_OTHER: 0 0%

