Initialize SIGNATURE TABLE
ST_SET: 1
ST_WAY: 256
ST_TAG_BIT: 16
ST_TAG_MASK: ffff

Initialize PATTERN TABLE
PT_SET: 512
PT_WAY: 4
SIG_DELTA_BIT: 7
C_SIG_BIT: 4
C_DELTA_BIT: 4

Initialize PREFETCH FILTER
FILTER_SET: 1024

*** ChampSim Multicore Out-of-Order Simulator ***

Warmup Instructions: 50000000
Simulation Instructions: 50000000
Number of CPUs: 1
LLC sets: 2048
LLC ways: 16
Off-chip DRAM Size: 4096 MB Channels: 1 Width: 64-bit Data Rate: 3200 MT/s

CPU 0 runs /home/ykhodke/ChampSim/dpc3_traces/server_009.champsimtrace.xz
L1I D-JOLT instruction prefetcher has been constructed!
CPU 0 L1D next line prefetcher
Heartbeat CPU 0 instructions: 10000003 cycles: 3196051 heartbeat IPC: 3.12886 cumulative IPC: 3.12886 (Simulation time: 0 hr 3 min 22 sec) 
Heartbeat CPU 0 instructions: 20000001 cycles: 6385080 heartbeat IPC: 3.13575 cumulative IPC: 3.1323 (Simulation time: 0 hr 6 min 38 sec) 
Heartbeat CPU 0 instructions: 30000002 cycles: 9589203 heartbeat IPC: 3.12098 cumulative IPC: 3.12852 (Simulation time: 0 hr 10 min 1 sec) 
Heartbeat CPU 0 instructions: 40000003 cycles: 12789439 heartbeat IPC: 3.12477 cumulative IPC: 3.12758 (Simulation time: 0 hr 13 min 31 sec) 
Heartbeat CPU 0 instructions: 50000000 cycles: 16046421 heartbeat IPC: 3.07033 cumulative IPC: 3.11596 (Simulation time: 0 hr 17 min 23 sec) 

Warmup complete CPU 0 instructions: 50000004 cycles: 16046422 (Simulation time: 0 hr 17 min 23 sec) 

Heartbeat CPU 0 instructions: 60000002 cycles: 31703455 heartbeat IPC: 0.638691 cumulative IPC: 0.63869 (Simulation time: 0 hr 21 min 4 sec) 
Heartbeat CPU 0 instructions: 70000003 cycles: 52779406 heartbeat IPC: 0.474474 cumulative IPC: 0.54447 (Simulation time: 0 hr 25 min 19 sec) 
Heartbeat CPU 0 instructions: 80000000 cycles: 59907911 heartbeat IPC: 1.40282 cumulative IPC: 0.683971 (Simulation time: 0 hr 27 min 33 sec) 
Heartbeat CPU 0 instructions: 90000001 cycles: 67163807 heartbeat IPC: 1.37819 cumulative IPC: 0.782513 (Simulation time: 0 hr 29 min 10 sec) 
Heartbeat CPU 0 instructions: 100000003 cycles: 74309238 heartbeat IPC: 1.3995 cumulative IPC: 0.85818 (Simulation time: 0 hr 30 min 4 sec) 
Finished CPU 0 instructions: 50000003 cycles: 58262817 cumulative IPC: 0.85818 (Simulation time: 0 hr 30 min 4 sec) 

ChampSim completed all CPUs

Region of Interest Statistics

CPU 0 cumulative IPC: 0.85818 instructions: 50000003 cycles: 58262817
L1D TOTAL     ACCESS:   21608238  HIT:   17028753  MISS:    4579485
L1D LOAD      ACCESS:    8620344  HIT:    6340164  MISS:    2280180
L1D RFO       ACCESS:    4580516  HIT:    4476070  MISS:     104446
L1D PREFETCH  ACCESS:    8407378  HIT:    6212519  MISS:    2194859
L1D WRITEBACK ACCESS:          0  HIT:          0  MISS:          0
L1D PREFETCH  REQUESTED:    8652676  ISSUED:    8555612  USEFUL:     106408  USELESS:    2088450
L1D AVERAGE MISS LATENCY: 20.3596 cycles
L1I TOTAL     ACCESS:   16599475  HIT:   15114745  MISS:    1484730
L1I LOAD      ACCESS:   10781284  HIT:   10712482  MISS:      68802
L1I RFO       ACCESS:          0  HIT:          0  MISS:          0
L1I PREFETCH  ACCESS:    5818191  HIT:    4402263  MISS:    1415928
L1I WRITEBACK ACCESS:          0  HIT:          0  MISS:          0
L1I PREFETCH  REQUESTED:    6374637  ISSUED:    6059064  USEFUL:    1079411  USELESS:     336516
L1I AVERAGE MISS LATENCY: 31.4227 cycles
L2C TOTAL     ACCESS:    7815930  HIT:    6778480  MISS:    1037450
L2C LOAD      ACCESS:    2297848  HIT:    2078098  MISS:     219750
L2C RFO       ACCESS:     103490  HIT:      63563  MISS:      39927
L2C PREFETCH  ACCESS:    5157729  HIT:    4381269  MISS:     776460
L2C WRITEBACK ACCESS:     256863  HIT:     255550  MISS:       1313
L2C PREFETCH  REQUESTED:    6679377  ISSUED:    6677075  USEFUL:      22008  USELESS:     753246
L2C AVERAGE MISS LATENCY: 47.0784 cycles
LLC TOTAL     ACCESS:    2311697  HIT:    2176728  MISS:     134969
LLC LOAD      ACCESS:     219538  HIT:     199164  MISS:      20374
LLC RFO       ACCESS:      39917  HIT:      31333  MISS:       8584
LLC PREFETCH  ACCESS:    1916035  HIT:    1810278  MISS:     105757
LLC WRITEBACK ACCESS:     136207  HIT:     135953  MISS:        254
LLC PREFETCH  REQUESTED:          0  ISSUED:          0  USEFUL:      11789  USELESS:      92441
LLC AVERAGE MISS LATENCY: 174.086 cycles
Major fault: 0 Minor fault: 6365
CPU 0 L1D next line prefetcher final stats

DRAM Statistics
 CHANNEL 0
 RQ ROW_BUFFER_HIT:      25848  ROW_BUFFER_MISS:     108856
 DBUS_CONGESTED:      57756
 WQ ROW_BUFFER_HIT:       8937  ROW_BUFFER_MISS:      37538  FULL:          0

 AVG_CONGESTED_CYCLE: 5

CPU 0 Branch Prediction Accuracy: 99.4713% MPKI: 1.11484 Average ROB Occupancy at Mispredict: 119.177

Branch types
NOT_BRANCH: 39456615 78.9132%
BRANCH_DIRECT_JUMP: 445350 0.8907%
BRANCH_INDIRECT: 131149 0.262298%
BRANCH_CONDITIONAL: 8130196 16.2604%
BRANCH_DIRECT_CALL: 732485 1.46497%
BRANCH_INDIRECT_CALL: 172369 0.344738%
BRANCH_RETURN: 931558 1.86312%
BRANCH_OTHER: 0 0%

