Initialize SIGNATURE TABLE
ST_SET: 1
ST_WAY: 256
ST_TAG_BIT: 16
ST_TAG_MASK: ffff

Initialize PATTERN TABLE
PT_SET: 512
PT_WAY: 4
SIG_DELTA_BIT: 7
C_SIG_BIT: 4
C_DELTA_BIT: 4

Initialize PREFETCH FILTER
FILTER_SET: 1024

*** ChampSim Multicore Out-of-Order Simulator ***

Warmup Instructions: 50000000
Simulation Instructions: 50000000
Number of CPUs: 1
LLC sets: 2048
LLC ways: 16
Off-chip DRAM Size: 4096 MB Channels: 1 Width: 64-bit Data Rate: 3200 MT/s

CPU 0 runs /home/ykhodke/ChampSim/dpc3_traces/server_016.champsimtrace.xz
LHT KB: 126.25
SCC KB: 1.56
Total KB: 127.81
CPU 0 L1D next line prefetcher
Heartbeat CPU 0 instructions: 10000000 cycles: 3498138 heartbeat IPC: 2.85866 cumulative IPC: 2.85866 (Simulation time: 0 hr 3 min 22 sec) 
Heartbeat CPU 0 instructions: 20000000 cycles: 6996629 heartbeat IPC: 2.85838 cumulative IPC: 2.85852 (Simulation time: 0 hr 6 min 38 sec) 
Heartbeat CPU 0 instructions: 30000001 cycles: 10490516 heartbeat IPC: 2.86214 cumulative IPC: 2.85973 (Simulation time: 0 hr 9 min 55 sec) 
Heartbeat CPU 0 instructions: 40000000 cycles: 13788974 heartbeat IPC: 3.03172 cumulative IPC: 2.90087 (Simulation time: 0 hr 11 min 29 sec) 
Heartbeat CPU 0 instructions: 50000002 cycles: 17024439 heartbeat IPC: 3.09075 cumulative IPC: 2.93695 (Simulation time: 0 hr 12 min 35 sec) 

Warmup complete CPU 0 instructions: 50000002 cycles: 17024439 (Simulation time: 0 hr 12 min 35 sec) 

Heartbeat CPU 0 instructions: 60000001 cycles: 24991871 heartbeat IPC: 1.25511 cumulative IPC: 1.25511 (Simulation time: 0 hr 13 min 54 sec) 
Heartbeat CPU 0 instructions: 70000001 cycles: 31874854 heartbeat IPC: 1.45286 cumulative IPC: 1.34676 (Simulation time: 0 hr 17 min 18 sec) 
Heartbeat CPU 0 instructions: 80000001 cycles: 38864386 heartbeat IPC: 1.43071 cumulative IPC: 1.37363 (Simulation time: 0 hr 20 min 31 sec) 
Heartbeat CPU 0 instructions: 90000000 cycles: 45623527 heartbeat IPC: 1.47948 cumulative IPC: 1.39865 (Simulation time: 0 hr 23 min 34 sec) 
Heartbeat CPU 0 instructions: 100000000 cycles: 52529974 heartbeat IPC: 1.44792 cumulative IPC: 1.40823 (Simulation time: 0 hr 26 min 27 sec) 
Finished CPU 0 instructions: 50000002 cycles: 35505536 cumulative IPC: 1.40823 (Simulation time: 0 hr 26 min 27 sec) 

ChampSim completed all CPUs

Region of Interest Statistics

CPU 0 cumulative IPC: 1.40823 instructions: 50000002 cycles: 35505536
L1D TOTAL     ACCESS:   18041759  HIT:   16774346  MISS:    1267413
L1D LOAD      ACCESS:    6563253  HIT:    5989960  MISS:     573293
L1D RFO       ACCESS:    5195101  HIT:    4972800  MISS:     222301
L1D PREFETCH  ACCESS:    6283405  HIT:    5811586  MISS:     471819
L1D WRITEBACK ACCESS:          0  HIT:          0  MISS:          0
L1D PREFETCH  REQUESTED:    6606553  ISSUED:    6503627  USEFUL:     112841  USELESS:     358996
L1D AVERAGE MISS LATENCY: 23.9888 cycles
L1I TOTAL     ACCESS:   21655058  HIT:   17917053  MISS:    3738005
L1I LOAD      ACCESS:    9770372  HIT:    9350495  MISS:     419877
L1I RFO       ACCESS:          0  HIT:          0  MISS:          0
L1I PREFETCH  ACCESS:   11884686  HIT:    8566558  MISS:    3318128
L1I WRITEBACK ACCESS:          0  HIT:          0  MISS:          0
L1I PREFETCH  REQUESTED:   13768560  ISSUED:   13768560  USEFUL:    1802647  USELESS:    1515470
L1I AVERAGE MISS LATENCY: 14.955 cycles
L2C TOTAL     ACCESS:    6811399  HIT:    6258371  MISS:     553028
L2C LOAD      ACCESS:     578904  HIT:     466399  MISS:     112505
L2C RFO       ACCESS:     220285  HIT:     155262  MISS:      65023
L2C PREFETCH  ACCESS:    5583971  HIT:    5214049  MISS:     369922
L2C WRITEBACK ACCESS:     428239  HIT:     422661  MISS:       5578
L2C PREFETCH  REQUESTED:    3927995  ISSUED:    3922680  USEFUL:      15098  USELESS:     354217
L2C AVERAGE MISS LATENCY: 40.0265 cycles
LLC TOTAL     ACCESS:    1710584  HIT:    1674457  MISS:      36127
LLC LOAD      ACCESS:     112353  HIT:     108356  MISS:       3997
LLC RFO       ACCESS:      65004  HIT:      51429  MISS:      13575
LLC PREFETCH  ACCESS:    1419810  HIT:    1401430  MISS:      18380
LLC WRITEBACK ACCESS:     113417  HIT:     113242  MISS:        175
LLC PREFETCH  REQUESTED:          0  ISSUED:          0  USEFUL:       1560  USELESS:      16785
LLC AVERAGE MISS LATENCY: 179.334 cycles
Major fault: 0 Minor fault: 2380
CPU 0 L1D next line prefetcher final stats

DRAM Statistics
 CHANNEL 0
 RQ ROW_BUFFER_HIT:      11260  ROW_BUFFER_MISS:      24691
 DBUS_CONGESTED:      23090
 WQ ROW_BUFFER_HIT:       1593  ROW_BUFFER_MISS:      14625  FULL:          0

 AVG_CONGESTED_CYCLE: 6

CPU 0 Branch Prediction Accuracy: 99.7225% MPKI: 0.50376 Average ROB Occupancy at Mispredict: 123.153

Branch types
NOT_BRANCH: 40923924 81.8478%
BRANCH_DIRECT_JUMP: 487045 0.97409%
BRANCH_INDIRECT: 169158 0.338316%
BRANCH_CONDITIONAL: 6640825 13.2816%
BRANCH_DIRECT_CALL: 755586 1.51117%
BRANCH_INDIRECT_CALL: 133962 0.267924%
BRANCH_RETURN: 889567 1.77913%
BRANCH_OTHER: 0 0%

