Initialize SIGNATURE TABLE
ST_SET: 1
ST_WAY: 256
ST_TAG_BIT: 16
ST_TAG_MASK: ffff

Initialize PATTERN TABLE
PT_SET: 512
PT_WAY: 4
SIG_DELTA_BIT: 7
C_SIG_BIT: 4
C_DELTA_BIT: 4

Initialize PREFETCH FILTER
FILTER_SET: 1024

*** ChampSim Multicore Out-of-Order Simulator ***

Warmup Instructions: 50000000
Simulation Instructions: 50000000
Number of CPUs: 1
LLC sets: 2048
LLC ways: 16
Off-chip DRAM Size: 4096 MB Channels: 1 Width: 64-bit Data Rate: 3200 MT/s

CPU 0 runs /home/ykhodke/ChampSim/dpc3_traces/server_030.champsimtrace.xz
L1I D-JOLT instruction prefetcher has been constructed!
CPU 0 L1D next line prefetcher
Heartbeat CPU 0 instructions: 10000003 cycles: 3504583 heartbeat IPC: 2.85341 cumulative IPC: 2.85341 (Simulation time: 0 hr 3 min 31 sec) 
Heartbeat CPU 0 instructions: 20000003 cycles: 7008911 heartbeat IPC: 2.85361 cumulative IPC: 2.85351 (Simulation time: 0 hr 7 min 27 sec) 
Heartbeat CPU 0 instructions: 30000000 cycles: 10512475 heartbeat IPC: 2.85424 cumulative IPC: 2.85375 (Simulation time: 0 hr 10 min 26 sec) 
Heartbeat CPU 0 instructions: 40000002 cycles: 14016104 heartbeat IPC: 2.85418 cumulative IPC: 2.85386 (Simulation time: 0 hr 13 min 23 sec) 
Heartbeat CPU 0 instructions: 50000002 cycles: 17522578 heartbeat IPC: 2.85187 cumulative IPC: 2.85346 (Simulation time: 0 hr 16 min 15 sec) 

Warmup complete CPU 0 instructions: 50000002 cycles: 17522578 (Simulation time: 0 hr 16 min 15 sec) 

Heartbeat CPU 0 instructions: 60000000 cycles: 24565187 heartbeat IPC: 1.41993 cumulative IPC: 1.41993 (Simulation time: 0 hr 19 min 24 sec) 
Heartbeat CPU 0 instructions: 70000000 cycles: 31608997 heartbeat IPC: 1.41969 cumulative IPC: 1.41981 (Simulation time: 0 hr 22 min 22 sec) 
Heartbeat CPU 0 instructions: 80000001 cycles: 38640260 heartbeat IPC: 1.42222 cumulative IPC: 1.42061 (Simulation time: 0 hr 25 min 10 sec) 
*** Reached end of trace for Core: 0 Repeating trace: /home/ykhodke/ChampSim/dpc3_traces/server_030.champsimtrace.xz
Heartbeat CPU 0 instructions: 90000002 cycles: 45667289 heartbeat IPC: 1.42308 cumulative IPC: 1.42123 (Simulation time: 0 hr 27 min 30 sec) 
Heartbeat CPU 0 instructions: 100000002 cycles: 52692888 heartbeat IPC: 1.42337 cumulative IPC: 1.42165 (Simulation time: 0 hr 28 min 55 sec) 
Finished CPU 0 instructions: 50000000 cycles: 35170310 cumulative IPC: 1.42165 (Simulation time: 0 hr 28 min 55 sec) 

ChampSim completed all CPUs

Region of Interest Statistics

CPU 0 cumulative IPC: 1.42165 instructions: 50000000 cycles: 35170310
L1D TOTAL     ACCESS:   19147928  HIT:   17071939  MISS:    2075989
L1D LOAD      ACCESS:    6763140  HIT:    5708446  MISS:    1054694
L1D RFO       ACCESS:    6170569  HIT:    5884492  MISS:     286077
L1D PREFETCH  ACCESS:    6214219  HIT:    5479001  MISS:     735218
L1D WRITEBACK ACCESS:          0  HIT:          0  MISS:          0
L1D PREFETCH  REQUESTED:    6816816  ISSUED:    6682923  USEFUL:     179629  USELESS:     555682
L1D AVERAGE MISS LATENCY: 19.0292 cycles
L1I TOTAL     ACCESS:   16499115  HIT:   13190376  MISS:    3308739
L1I LOAD      ACCESS:    9812512  HIT:    9734568  MISS:      77944
L1I RFO       ACCESS:          0  HIT:          0  MISS:          0
L1I PREFETCH  ACCESS:    6686603  HIT:    3455808  MISS:    3230795
L1I WRITEBACK ACCESS:          0  HIT:          0  MISS:          0
L1I PREFETCH  REQUESTED:    7248986  ISSUED:    7193155  USEFUL:    2903361  USELESS:     327440
L1I AVERAGE MISS LATENCY: 19.1061 cycles
L2C TOTAL     ACCESS:    7638567  HIT:    6798790  MISS:     839777
L2C LOAD      ACCESS:     929748  HIT:     796015  MISS:     133733
L2C RFO       ACCESS:     283589  HIT:     221959  MISS:      61630
L2C PREFETCH  ACCESS:    5809724  HIT:    5168121  MISS:     641603
L2C WRITEBACK ACCESS:     615506  HIT:     612695  MISS:       2811
L2C PREFETCH  REQUESTED:    5565588  ISSUED:    5556492  USEFUL:       9690  USELESS:     631701
L2C AVERAGE MISS LATENCY: 34.1887 cycles
LLC TOTAL     ACCESS:    2313437  HIT:    2291634  MISS:      21803
LLC LOAD      ACCESS:     133461  HIT:     130517  MISS:       2944
LLC RFO       ACCESS:      61604  HIT:      59833  MISS:       1771
LLC PREFETCH  ACCESS:    2003298  HIT:    1986319  MISS:      16979
LLC WRITEBACK ACCESS:     115074  HIT:     114965  MISS:        109
LLC PREFETCH  REQUESTED:          0  ISSUED:          0  USEFUL:        873  USELESS:      15539
LLC AVERAGE MISS LATENCY: 147.263 cycles
Major fault: 0 Minor fault: 2045
CPU 0 L1D next line prefetcher final stats

DRAM Statistics
 CHANNEL 0
 RQ ROW_BUFFER_HIT:       6770  ROW_BUFFER_MISS:      14924
 DBUS_CONGESTED:       6776
 WQ ROW_BUFFER_HIT:        178  ROW_BUFFER_MISS:       2352  FULL:          0

 AVG_CONGESTED_CYCLE: 5

CPU 0 Branch Prediction Accuracy: 99.8445% MPKI: 0.29148 Average ROB Occupancy at Mispredict: 169.108

Branch types
NOT_BRANCH: 40628082 81.2562%
BRANCH_DIRECT_JUMP: 490941 0.981882%
BRANCH_INDIRECT: 175854 0.351708%
BRANCH_CONDITIONAL: 6321415 12.6428%
BRANCH_DIRECT_CALL: 1002072 2.00414%
BRANCH_INDIRECT_CALL: 189783 0.379566%
BRANCH_RETURN: 1191851 2.3837%
BRANCH_OTHER: 0 0%

