Initialize SIGNATURE TABLE
ST_SET: 1
ST_WAY: 256
ST_TAG_BIT: 16
ST_TAG_MASK: ffff

Initialize PATTERN TABLE
PT_SET: 512
PT_WAY: 4
SIG_DELTA_BIT: 7
C_SIG_BIT: 4
C_DELTA_BIT: 4

Initialize PREFETCH FILTER
FILTER_SET: 1024

*** ChampSim Multicore Out-of-Order Simulator ***

Warmup Instructions: 50000000
Simulation Instructions: 50000000
Number of CPUs: 1
LLC sets: 2048
LLC ways: 16
Off-chip DRAM Size: 4096 MB Channels: 1 Width: 64-bit Data Rate: 3200 MT/s

CPU 0 runs /home/ykhodke/ChampSim/dpc3_traces/server_001.champsimtrace.xz
LHT KB: 126.25
SCC KB: 1.56
Total KB: 127.81
CPU 0 L1D next line prefetcher
Heartbeat CPU 0 instructions: 10000002 cycles: 3156904 heartbeat IPC: 3.16766 cumulative IPC: 3.16766 (Simulation time: 0 hr 2 min 35 sec) 
Heartbeat CPU 0 instructions: 20000000 cycles: 6373478 heartbeat IPC: 3.1089 cumulative IPC: 3.138 (Simulation time: 0 hr 5 min 14 sec) 
Heartbeat CPU 0 instructions: 30000003 cycles: 9562414 heartbeat IPC: 3.13584 cumulative IPC: 3.13728 (Simulation time: 0 hr 7 min 51 sec) 
Heartbeat CPU 0 instructions: 40000002 cycles: 12771970 heartbeat IPC: 3.1157 cumulative IPC: 3.13186 (Simulation time: 0 hr 10 min 41 sec) 
Heartbeat CPU 0 instructions: 50000003 cycles: 15993166 heartbeat IPC: 3.10444 cumulative IPC: 3.12634 (Simulation time: 0 hr 13 min 27 sec) 

Warmup complete CPU 0 instructions: 50000003 cycles: 15993166 (Simulation time: 0 hr 13 min 27 sec) 

Heartbeat CPU 0 instructions: 60000000 cycles: 23077622 heartbeat IPC: 1.41154 cumulative IPC: 1.41154 (Simulation time: 0 hr 16 min 18 sec) 
Heartbeat CPU 0 instructions: 70000001 cycles: 29925042 heartbeat IPC: 1.4604 cumulative IPC: 1.43556 (Simulation time: 0 hr 19 min 17 sec) 
Heartbeat CPU 0 instructions: 80000002 cycles: 36742845 heartbeat IPC: 1.46675 cumulative IPC: 1.44581 (Simulation time: 0 hr 22 min 2 sec) 
Heartbeat CPU 0 instructions: 90000002 cycles: 43878463 heartbeat IPC: 1.40142 cumulative IPC: 1.43445 (Simulation time: 0 hr 24 min 43 sec) 
Heartbeat CPU 0 instructions: 100000003 cycles: 50618109 heartbeat IPC: 1.48376 cumulative IPC: 1.44405 (Simulation time: 0 hr 27 min 4 sec) 
Finished CPU 0 instructions: 50000000 cycles: 34624943 cumulative IPC: 1.44405 (Simulation time: 0 hr 27 min 4 sec) 

ChampSim completed all CPUs

Region of Interest Statistics

CPU 0 cumulative IPC: 1.44405 instructions: 50000000 cycles: 34624943
L1D TOTAL     ACCESS:   17636754  HIT:   17125642  MISS:     511112
L1D LOAD      ACCESS:    6454146  HIT:    6249520  MISS:     204626
L1D RFO       ACCESS:    5054157  HIT:    4971497  MISS:      82660
L1D PREFETCH  ACCESS:    6128451  HIT:    5904625  MISS:     223826
L1D WRITEBACK ACCESS:          0  HIT:          0  MISS:          0
L1D PREFETCH  REQUESTED:    6483384  ISSUED:    6305376  USEFUL:     132127  USELESS:      91827
L1D AVERAGE MISS LATENCY: 95.3209 cycles
L1I TOTAL     ACCESS:   15714722  HIT:   14665054  MISS:    1049668
L1I LOAD      ACCESS:    8241020  HIT:    8151183  MISS:      89837
L1I RFO       ACCESS:          0  HIT:          0  MISS:          0
L1I PREFETCH  ACCESS:    7473702  HIT:    6513871  MISS:     959831
L1I WRITEBACK ACCESS:          0  HIT:          0  MISS:          0
L1I PREFETCH  REQUESTED:    8706725  ISSUED:    8706725  USEFUL:     556678  USELESS:     403269
L1I AVERAGE MISS LATENCY: 26.2836 cycles
L2C TOTAL     ACCESS:    2326502  HIT:    1839599  MISS:     486903
L2C LOAD      ACCESS:     187017  HIT:      92333  MISS:      94684
L2C RFO       ACCESS:      80927  HIT:      10085  MISS:      70842
L2C PREFETCH  ACCESS:    1850705  HIT:    1530056  MISS:     320649
L2C WRITEBACK ACCESS:     207853  HIT:     207125  MISS:        728
L2C PREFETCH  REQUESTED:    1933975  ISSUED:    1931886  USEFUL:      21824  USELESS:     298829
L2C AVERAGE MISS LATENCY: 120.6 cycles
LLC TOTAL     ACCESS:    1233104  HIT:     911390  MISS:     321714
LLC LOAD      ACCESS:      94577  HIT:      64207  MISS:      30370
LLC RFO       ACCESS:      70842  HIT:       7320  MISS:      63522
LLC PREFETCH  ACCESS:     899400  HIT:     671799  MISS:     227601
LLC WRITEBACK ACCESS:     168285  HIT:     168064  MISS:        221
LLC PREFETCH  REQUESTED:          0  ISSUED:          0  USEFUL:      25470  USELESS:     198591
LLC AVERAGE MISS LATENCY: 225.943 cycles
Major fault: 0 Minor fault: 16719
CPU 0 L1D next line prefetcher final stats

DRAM Statistics
 CHANNEL 0
 RQ ROW_BUFFER_HIT:      97693  ROW_BUFFER_MISS:     223773
 DBUS_CONGESTED:     222747
 WQ ROW_BUFFER_HIT:      35274  ROW_BUFFER_MISS:     122619  FULL:          0

 AVG_CONGESTED_CYCLE: 6

CPU 0 Branch Prediction Accuracy: 99.5889% MPKI: 0.70108 Average ROB Occupancy at Mispredict: 112.562

Branch types
NOT_BRANCH: 41473577 82.9472%
BRANCH_DIRECT_JUMP: 347941 0.695882%
BRANCH_INDIRECT: 148212 0.296424%
BRANCH_CONDITIONAL: 6817276 13.6346%
BRANCH_DIRECT_CALL: 570724 1.14145%
BRANCH_INDIRECT_CALL: 25133 0.050266%
BRANCH_RETURN: 617123 1.23425%
BRANCH_OTHER: 0 0%

