Initialize SIGNATURE TABLE
ST_SET: 1
ST_WAY: 256
ST_TAG_BIT: 16
ST_TAG_MASK: ffff

Initialize PATTERN TABLE
PT_SET: 512
PT_WAY: 4
SIG_DELTA_BIT: 7
C_SIG_BIT: 4
C_DELTA_BIT: 4

Initialize PREFETCH FILTER
FILTER_SET: 1024

*** ChampSim Multicore Out-of-Order Simulator ***

Warmup Instructions: 50000000
Simulation Instructions: 50000000
Number of CPUs: 1
LLC sets: 2048
LLC ways: 16
Off-chip DRAM Size: 4096 MB Channels: 1 Width: 64-bit Data Rate: 3200 MT/s

CPU 0 runs /home/ykhodke/ChampSim/dpc3_traces/server_013.champsimtrace.xz
LHT KB: 63.12
SCC KB: 1.56
Total KB: 64.69
CPU 0 L1D next line prefetcher
Heartbeat CPU 0 instructions: 10000000 cycles: 3219660 heartbeat IPC: 3.10592 cumulative IPC: 3.10592 (Simulation time: 0 hr 2 min 35 sec) 
Heartbeat CPU 0 instructions: 20000001 cycles: 6429315 heartbeat IPC: 3.1156 cumulative IPC: 3.11075 (Simulation time: 0 hr 5 min 11 sec) 
Heartbeat CPU 0 instructions: 30000002 cycles: 9642852 heartbeat IPC: 3.11184 cumulative IPC: 3.11111 (Simulation time: 0 hr 7 min 37 sec) 
Heartbeat CPU 0 instructions: 40000002 cycles: 12851619 heartbeat IPC: 3.11646 cumulative IPC: 3.11245 (Simulation time: 0 hr 10 min 31 sec) 
Heartbeat CPU 0 instructions: 50000000 cycles: 16059571 heartbeat IPC: 3.11725 cumulative IPC: 3.11341 (Simulation time: 0 hr 14 min 13 sec) 

Warmup complete CPU 0 instructions: 50000004 cycles: 16059572 (Simulation time: 0 hr 14 min 13 sec) 

Heartbeat CPU 0 instructions: 60000002 cycles: 24277134 heartbeat IPC: 1.21691 cumulative IPC: 1.21691 (Simulation time: 0 hr 17 min 48 sec) 
Heartbeat CPU 0 instructions: 70000002 cycles: 32712977 heartbeat IPC: 1.18542 cumulative IPC: 1.20096 (Simulation time: 0 hr 20 min 37 sec) 
Heartbeat CPU 0 instructions: 80000003 cycles: 40586624 heartbeat IPC: 1.27006 cumulative IPC: 1.22314 (Simulation time: 0 hr 23 min 13 sec) 
Heartbeat CPU 0 instructions: 90000003 cycles: 48638836 heartbeat IPC: 1.24189 cumulative IPC: 1.22777 (Simulation time: 0 hr 26 min 3 sec) 
Heartbeat CPU 0 instructions: 100000003 cycles: 56684171 heartbeat IPC: 1.24296 cumulative IPC: 1.23078 (Simulation time: 0 hr 28 min 6 sec) 
Finished CPU 0 instructions: 50000003 cycles: 40624600 cumulative IPC: 1.23078 (Simulation time: 0 hr 28 min 6 sec) 

ChampSim completed all CPUs

Region of Interest Statistics

CPU 0 cumulative IPC: 1.23078 instructions: 50000003 cycles: 40624600
L1D TOTAL     ACCESS:   17568746  HIT:   16501872  MISS:    1066874
L1D LOAD      ACCESS:    6436154  HIT:    5936845  MISS:     499309
L1D RFO       ACCESS:    4937618  HIT:    4857302  MISS:      80316
L1D PREFETCH  ACCESS:    6194974  HIT:    5707725  MISS:     487249
L1D WRITEBACK ACCESS:          0  HIT:          0  MISS:          0
L1D PREFETCH  REQUESTED:    6473203  ISSUED:    6376319  USEFUL:     135308  USELESS:     351948
L1D AVERAGE MISS LATENCY: 44.4145 cycles
L1I TOTAL     ACCESS:   17894643  HIT:   15378984  MISS:    2515659
L1I LOAD      ACCESS:    8612592  HIT:    8132765  MISS:     479827
L1I RFO       ACCESS:          0  HIT:          0  MISS:          0
L1I PREFETCH  ACCESS:    9282051  HIT:    7246219  MISS:    2035832
L1I WRITEBACK ACCESS:          0  HIT:          0  MISS:          0
L1I PREFETCH  REQUESTED:   16684529  ISSUED:   16684529  USEFUL:    1020565  USELESS:    1015228
L1I AVERAGE MISS LATENCY: 26.8681 cycles
L2C TOTAL     ACCESS:    4666494  HIT:    3040654  MISS:    1625840
L2C LOAD      ACCESS:     563481  HIT:     242399  MISS:     321082
L2C RFO       ACCESS:      78846  HIT:      27920  MISS:      50926
L2C PREFETCH  ACCESS:    3748378  HIT:    2497398  MISS:    1250980
L2C WRITEBACK ACCESS:     275789  HIT:     272937  MISS:       2852
L2C PREFETCH  REQUESTED:    3316410  ISSUED:    3311991  USEFUL:      35012  USELESS:    1215359
L2C AVERAGE MISS LATENCY: 48.7734 cycles
LLC TOTAL     ACCESS:    2675515  HIT:    2469402  MISS:     206113
LLC LOAD      ACCESS:     320953  HIT:     293519  MISS:      27434
LLC RFO       ACCESS:      50911  HIT:      39578  MISS:      11333
LLC PREFETCH  ACCESS:    2120247  HIT:    1953129  MISS:     167118
LLC WRITEBACK ACCESS:     183404  HIT:     183176  MISS:        228
LLC PREFETCH  REQUESTED:          0  ISSUED:          0  USEFUL:      12375  USELESS:     153256
LLC AVERAGE MISS LATENCY: 172.867 cycles
Major fault: 0 Minor fault: 6228
CPU 0 L1D next line prefetcher final stats

DRAM Statistics
 CHANNEL 0
 RQ ROW_BUFFER_HIT:      36402  ROW_BUFFER_MISS:     169468
 DBUS_CONGESTED:      88746
 WQ ROW_BUFFER_HIT:      12798  ROW_BUFFER_MISS:      53018  FULL:          0

 AVG_CONGESTED_CYCLE: 5

CPU 0 Branch Prediction Accuracy: 99.4114% MPKI: 1.0933 Average ROB Occupancy at Mispredict: 107.428

Branch types
NOT_BRANCH: 40713270 81.4265%
BRANCH_DIRECT_JUMP: 463701 0.927402%
BRANCH_INDIRECT: 146544 0.293088%
BRANCH_CONDITIONAL: 6981955 13.9639%
BRANCH_DIRECT_CALL: 665005 1.33001%
BRANCH_INDIRECT_CALL: 165152 0.330304%
BRANCH_RETURN: 864314 1.72863%
BRANCH_OTHER: 0 0%

