Initialize SIGNATURE TABLE
ST_SET: 1
ST_WAY: 256
ST_TAG_BIT: 16
ST_TAG_MASK: ffff

Initialize PATTERN TABLE
PT_SET: 512
PT_WAY: 4
SIG_DELTA_BIT: 7
C_SIG_BIT: 4
C_DELTA_BIT: 4

Initialize PREFETCH FILTER
FILTER_SET: 1024

*** ChampSim Multicore Out-of-Order Simulator ***

Warmup Instructions: 50000000
Simulation Instructions: 50000000
Number of CPUs: 1
LLC sets: 2048
LLC ways: 16
Off-chip DRAM Size: 4096 MB Channels: 1 Width: 64-bit Data Rate: 3200 MT/s

CPU 0 runs /home/ykhodke/ChampSim/dpc3_traces/server_001.champsimtrace.xz
LHT KB: 63.12
SCC KB: 1.56
Total KB: 64.69
CPU 0 L1D next line prefetcher
Heartbeat CPU 0 instructions: 10000002 cycles: 3156676 heartbeat IPC: 3.16789 cumulative IPC: 3.16789 (Simulation time: 0 hr 2 min 53 sec) 
Heartbeat CPU 0 instructions: 20000000 cycles: 6373390 heartbeat IPC: 3.10876 cumulative IPC: 3.13805 (Simulation time: 0 hr 5 min 55 sec) 
Heartbeat CPU 0 instructions: 30000003 cycles: 9562087 heartbeat IPC: 3.13608 cumulative IPC: 3.13739 (Simulation time: 0 hr 8 min 54 sec) 
Heartbeat CPU 0 instructions: 40000002 cycles: 12771895 heartbeat IPC: 3.11545 cumulative IPC: 3.13188 (Simulation time: 0 hr 11 min 50 sec) 
Heartbeat CPU 0 instructions: 50000003 cycles: 15993155 heartbeat IPC: 3.10438 cumulative IPC: 3.12634 (Simulation time: 0 hr 14 min 50 sec) 

Warmup complete CPU 0 instructions: 50000003 cycles: 15993155 (Simulation time: 0 hr 14 min 50 sec) 

Heartbeat CPU 0 instructions: 60000000 cycles: 23349251 heartbeat IPC: 1.35942 cumulative IPC: 1.35942 (Simulation time: 0 hr 17 min 43 sec) 
Heartbeat CPU 0 instructions: 70000001 cycles: 30289545 heartbeat IPC: 1.44086 cumulative IPC: 1.39895 (Simulation time: 0 hr 20 min 35 sec) 
Heartbeat CPU 0 instructions: 80000002 cycles: 37343304 heartbeat IPC: 1.41768 cumulative IPC: 1.40514 (Simulation time: 0 hr 23 min 21 sec) 
Heartbeat CPU 0 instructions: 90000002 cycles: 44643443 heartbeat IPC: 1.36984 cumulative IPC: 1.39615 (Simulation time: 0 hr 26 min 2 sec) 
Heartbeat CPU 0 instructions: 100000003 cycles: 51584502 heartbeat IPC: 1.4407 cumulative IPC: 1.40484 (Simulation time: 0 hr 28 min 1 sec) 
Finished CPU 0 instructions: 50000000 cycles: 35591347 cumulative IPC: 1.40484 (Simulation time: 0 hr 28 min 1 sec) 

ChampSim completed all CPUs

Region of Interest Statistics

CPU 0 cumulative IPC: 1.40484 instructions: 50000000 cycles: 35591347
L1D TOTAL     ACCESS:   17657640  HIT:   17146543  MISS:     511097
L1D LOAD      ACCESS:    6464513  HIT:    6260337  MISS:     204176
L1D RFO       ACCESS:    5054077  HIT:    4971394  MISS:      82683
L1D PREFETCH  ACCESS:    6139050  HIT:    5914812  MISS:     224238
L1D WRITEBACK ACCESS:          0  HIT:          0  MISS:          0
L1D PREFETCH  REQUESTED:    6493963  ISSUED:    6315780  USEFUL:     132510  USELESS:      91856
L1D AVERAGE MISS LATENCY: 94.37 cycles
L1I TOTAL     ACCESS:   15334614  HIT:   14446776  MISS:     887838
L1I LOAD      ACCESS:    8228994  HIT:    8119384  MISS:     109610
L1I RFO       ACCESS:          0  HIT:          0  MISS:          0
L1I PREFETCH  ACCESS:    7105620  HIT:    6327392  MISS:     778228
L1I WRITEBACK ACCESS:          0  HIT:          0  MISS:          0
L1I PREFETCH  REQUESTED:    9183792  ISSUED:    9183792  USEFUL:     476824  USELESS:     301510
L1I AVERAGE MISS LATENCY: 29.9042 cycles
L2C TOTAL     ACCESS:    2088366  HIT:    1572919  MISS:     515447
L2C LOAD      ACCESS:     188149  HIT:      88973  MISS:      99176
L2C RFO       ACCESS:      80945  HIT:      10019  MISS:      70926
L2C PREFETCH  ACCESS:    1611424  HIT:    1266994  MISS:     344430
L2C WRITEBACK ACCESS:     207848  HIT:     206933  MISS:        915
L2C PREFETCH  REQUESTED:    1695400  ISSUED:    1693803  USEFUL:      21595  USELESS:     322903
L2C AVERAGE MISS LATENCY: 121.674 cycles
LLC TOTAL     ACCESS:    1195683  HIT:     846671  MISS:     349012
LLC LOAD      ACCESS:      99082  HIT:      65921  MISS:      33161
LLC RFO       ACCESS:      70926  HIT:       6836  MISS:      64090
LLC PREFETCH  ACCESS:     857145  HIT:     605610  MISS:     251535
LLC WRITEBACK ACCESS:     168530  HIT:     168304  MISS:        226
LLC PREFETCH  REQUESTED:          0  ISSUED:          0  USEFUL:      26847  USELESS:     220408
LLC AVERAGE MISS LATENCY: 223.021 cycles
Major fault: 0 Minor fault: 16721
CPU 0 L1D next line prefetcher final stats

DRAM Statistics
 CHANNEL 0
 RQ ROW_BUFFER_HIT:     109509  ROW_BUFFER_MISS:     239230
 DBUS_CONGESTED:     239144
 WQ ROW_BUFFER_HIT:      35238  ROW_BUFFER_MISS:     124335  FULL:          0

 AVG_CONGESTED_CYCLE: 6

CPU 0 Branch Prediction Accuracy: 99.5889% MPKI: 0.70108 Average ROB Occupancy at Mispredict: 107.737

Branch types
NOT_BRANCH: 41473578 82.9472%
BRANCH_DIRECT_JUMP: 347941 0.695882%
BRANCH_INDIRECT: 148212 0.296424%
BRANCH_CONDITIONAL: 6817277 13.6346%
BRANCH_DIRECT_CALL: 570724 1.14145%
BRANCH_INDIRECT_CALL: 25133 0.050266%
BRANCH_RETURN: 617123 1.23425%
BRANCH_OTHER: 0 0%

