Initialize SIGNATURE TABLE
ST_SET: 1
ST_WAY: 256
ST_TAG_BIT: 16
ST_TAG_MASK: ffff

Initialize PATTERN TABLE
PT_SET: 512
PT_WAY: 4
SIG_DELTA_BIT: 7
C_SIG_BIT: 4
C_DELTA_BIT: 4

Initialize PREFETCH FILTER
FILTER_SET: 1024

*** ChampSim Multicore Out-of-Order Simulator ***

Warmup Instructions: 50000000
Simulation Instructions: 50000000
Number of CPUs: 1
LLC sets: 2048
LLC ways: 16
Off-chip DRAM Size: 4096 MB Channels: 1 Width: 64-bit Data Rate: 3200 MT/s

CPU 0 runs /home/ykhodke/ChampSim/dpc3_traces/server_014.champsimtrace.xz
L1I D-JOLT instruction prefetcher has been constructed!
CPU 0 L1D next line prefetcher
Heartbeat CPU 0 instructions: 10000003 cycles: 3519552 heartbeat IPC: 2.84127 cumulative IPC: 2.84127 (Simulation time: 0 hr 2 min 56 sec) 
Heartbeat CPU 0 instructions: 20000000 cycles: 7106328 heartbeat IPC: 2.78802 cumulative IPC: 2.81439 (Simulation time: 0 hr 5 min 56 sec) 
Heartbeat CPU 0 instructions: 30000001 cycles: 10647841 heartbeat IPC: 2.82365 cumulative IPC: 2.81747 (Simulation time: 0 hr 9 min 18 sec) 
Heartbeat CPU 0 instructions: 40000003 cycles: 14196063 heartbeat IPC: 2.81831 cumulative IPC: 2.81768 (Simulation time: 0 hr 13 min 6 sec) 
Heartbeat CPU 0 instructions: 50000000 cycles: 17744737 heartbeat IPC: 2.81795 cumulative IPC: 2.81774 (Simulation time: 0 hr 16 min 21 sec) 

Warmup complete CPU 0 instructions: 50000001 cycles: 17744738 (Simulation time: 0 hr 16 min 21 sec) 

Heartbeat CPU 0 instructions: 60000000 cycles: 24034450 heartbeat IPC: 1.5899 cumulative IPC: 1.5899 (Simulation time: 0 hr 19 min 41 sec) 
Heartbeat CPU 0 instructions: 70000003 cycles: 30327683 heartbeat IPC: 1.58901 cumulative IPC: 1.58945 (Simulation time: 0 hr 22 min 42 sec) 
*** Reached end of trace for Core: 0 Repeating trace: /home/ykhodke/ChampSim/dpc3_traces/server_014.champsimtrace.xz
Heartbeat CPU 0 instructions: 80000001 cycles: 36914874 heartbeat IPC: 1.5181 cumulative IPC: 1.56493 (Simulation time: 0 hr 25 min 26 sec) 
Heartbeat CPU 0 instructions: 90000003 cycles: 44555721 heartbeat IPC: 1.30876 cumulative IPC: 1.49193 (Simulation time: 0 hr 27 min 26 sec) 
Heartbeat CPU 0 instructions: 100000001 cycles: 51058713 heartbeat IPC: 1.53775 cumulative IPC: 1.50087 (Simulation time: 0 hr 28 min 29 sec) 
Finished CPU 0 instructions: 50000000 cycles: 33313975 cumulative IPC: 1.50087 (Simulation time: 0 hr 28 min 29 sec) 

ChampSim completed all CPUs

Region of Interest Statistics

CPU 0 cumulative IPC: 1.50087 instructions: 50000000 cycles: 33313975
L1D TOTAL     ACCESS:   21634453  HIT:   21563591  MISS:      70862
L1D LOAD      ACCESS:    6677381  HIT:    6650451  MISS:      26930
L1D RFO       ACCESS:    8412935  HIT:    8380871  MISS:      32064
L1D PREFETCH  ACCESS:    6544137  HIT:    6532269  MISS:      11868
L1D WRITEBACK ACCESS:          0  HIT:          0  MISS:          0
L1D PREFETCH  REQUESTED:    6681850  ISSUED:    6571855  USEFUL:       3311  USELESS:       8557
L1D AVERAGE MISS LATENCY: 225.256 cycles
L1I TOTAL     ACCESS:   18373916  HIT:   14805419  MISS:    3568497
L1I LOAD      ACCESS:    9781553  HIT:    9759577  MISS:      21976
L1I RFO       ACCESS:          0  HIT:          0  MISS:          0
L1I PREFETCH  ACCESS:    8592363  HIT:    5045842  MISS:    3546521
L1I WRITEBACK ACCESS:          0  HIT:          0  MISS:          0
L1I PREFETCH  REQUESTED:    8896079  ISSUED:    8854171  USEFUL:    2548504  USELESS:     997998
L1I AVERAGE MISS LATENCY: 14.8833 cycles
L2C TOTAL     ACCESS:    5173372  HIT:    5101180  MISS:      72192
L2C LOAD      ACCESS:      43037  HIT:      21089  MISS:      21948
L2C RFO       ACCESS:      32018  HIT:       1084  MISS:      30934
L2C PREFETCH  ACCESS:    5059952  HIT:    5040658  MISS:      19294
L2C WRITEBACK ACCESS:      38365  HIT:      38349  MISS:         16
L2C PREFETCH  REQUESTED:    3644605  ISSUED:    3635627  USEFUL:       1980  USELESS:      17549
L2C AVERAGE MISS LATENCY: 249.966 cycles
LLC TOTAL     ACCESS:     848690  HIT:     781741  MISS:      66949
LLC LOAD      ACCESS:      20727  HIT:       6628  MISS:      14099
LLC RFO       ACCESS:      30934  HIT:       4499  MISS:      26435
LLC PREFETCH  ACCESS:     762210  HIT:     735889  MISS:      26321
LLC WRITEBACK ACCESS:      34819  HIT:      34725  MISS:         94
LLC PREFETCH  REQUESTED:          0  ISSUED:          0  USEFUL:       5407  USELESS:      22922
LLC AVERAGE MISS LATENCY: 299.545 cycles
Major fault: 0 Minor fault: 1918
CPU 0 L1D next line prefetcher final stats

DRAM Statistics
 CHANNEL 0
 RQ ROW_BUFFER_HIT:      28909  ROW_BUFFER_MISS:      37944
 DBUS_CONGESTED:      66507
 WQ ROW_BUFFER_HIT:       8724  ROW_BUFFER_MISS:      23857  FULL:          0

 AVG_CONGESTED_CYCLE: 6

CPU 0 Branch Prediction Accuracy: 99.7719% MPKI: 0.38824 Average ROB Occupancy at Mispredict: 152.523

Branch types
NOT_BRANCH: 41489011 82.978%
BRANCH_DIRECT_JUMP: 449417 0.898834%
BRANCH_INDIRECT: 2330 0.00466%
BRANCH_CONDITIONAL: 5470016 10.94%
BRANCH_DIRECT_CALL: 1172187 2.34437%
BRANCH_INDIRECT_CALL: 122383 0.244766%
BRANCH_RETURN: 1294554 2.58911%
BRANCH_OTHER: 0 0%

