Initialize SIGNATURE TABLE
ST_SET: 1
ST_WAY: 256
ST_TAG_BIT: 16
ST_TAG_MASK: ffff

Initialize PATTERN TABLE
PT_SET: 512
PT_WAY: 4
SIG_DELTA_BIT: 7
C_SIG_BIT: 4
C_DELTA_BIT: 4

Initialize PREFETCH FILTER
FILTER_SET: 1024

*** ChampSim Multicore Out-of-Order Simulator ***

Warmup Instructions: 50000000
Simulation Instructions: 50000000
Number of CPUs: 1
LLC sets: 2048
LLC ways: 16
Off-chip DRAM Size: 4096 MB Channels: 1 Width: 64-bit Data Rate: 3200 MT/s

CPU 0 runs /home/ykhodke/ChampSim/dpc3_traces/server_031.champsimtrace.xz
LHT KB: 126.25
SCC KB: 1.56
Total KB: 127.81
CPU 0 L1D next line prefetcher
Heartbeat CPU 0 instructions: 10000003 cycles: 3521893 heartbeat IPC: 2.83938 cumulative IPC: 2.83938 (Simulation time: 0 hr 3 min 36 sec) 
Heartbeat CPU 0 instructions: 20000002 cycles: 7042437 heartbeat IPC: 2.84047 cumulative IPC: 2.83993 (Simulation time: 0 hr 6 min 57 sec) 
Heartbeat CPU 0 instructions: 30000002 cycles: 10563036 heartbeat IPC: 2.84043 cumulative IPC: 2.84009 (Simulation time: 0 hr 10 min 25 sec) 
Heartbeat CPU 0 instructions: 40000003 cycles: 14079336 heartbeat IPC: 2.8439 cumulative IPC: 2.84104 (Simulation time: 0 hr 13 min 43 sec) 
Heartbeat CPU 0 instructions: 50000001 cycles: 17597907 heartbeat IPC: 2.84206 cumulative IPC: 2.84125 (Simulation time: 0 hr 17 min 3 sec) 

Warmup complete CPU 0 instructions: 50000001 cycles: 17597907 (Simulation time: 0 hr 17 min 3 sec) 

Heartbeat CPU 0 instructions: 60000001 cycles: 25206342 heartbeat IPC: 1.31433 cumulative IPC: 1.31433 (Simulation time: 0 hr 20 min 29 sec) 
Heartbeat CPU 0 instructions: 70000002 cycles: 32865682 heartbeat IPC: 1.3056 cumulative IPC: 1.30995 (Simulation time: 0 hr 23 min 58 sec) 
*** Reached end of trace for Core: 0 Repeating trace: /home/ykhodke/ChampSim/dpc3_traces/server_031.champsimtrace.xz
Heartbeat CPU 0 instructions: 80000000 cycles: 40410379 heartbeat IPC: 1.32543 cumulative IPC: 1.31507 (Simulation time: 0 hr 27 min 20 sec) 
Heartbeat CPU 0 instructions: 90000003 cycles: 47973591 heartbeat IPC: 1.32219 cumulative IPC: 1.31684 (Simulation time: 0 hr 29 min 32 sec) 
Heartbeat CPU 0 instructions: 100000000 cycles: 55496222 heartbeat IPC: 1.32932 cumulative IPC: 1.31932 (Simulation time: 0 hr 30 min 32 sec) 
Finished CPU 0 instructions: 50000000 cycles: 37898317 cumulative IPC: 1.31932 (Simulation time: 0 hr 30 min 32 sec) 

ChampSim completed all CPUs

Region of Interest Statistics

CPU 0 cumulative IPC: 1.31932 instructions: 50000000 cycles: 37898317
L1D TOTAL     ACCESS:   19625651  HIT:   17720967  MISS:    1904684
L1D LOAD      ACCESS:    6821652  HIT:    5948851  MISS:     872801
L1D RFO       ACCESS:    6319906  HIT:    6027993  MISS:     291913
L1D PREFETCH  ACCESS:    6484093  HIT:    5744123  MISS:     739970
L1D WRITEBACK ACCESS:          0  HIT:          0  MISS:          0
L1D PREFETCH  REQUESTED:    6884429  ISSUED:    6774686  USEFUL:     174014  USELESS:     565962
L1D AVERAGE MISS LATENCY: 22.7123 cycles
L1I TOTAL     ACCESS:   23396748  HIT:   18739863  MISS:    4656885
L1I LOAD      ACCESS:    9548033  HIT:    8936496  MISS:     611537
L1I RFO       ACCESS:          0  HIT:          0  MISS:          0
L1I PREFETCH  ACCESS:   13848715  HIT:    9803367  MISS:    4045348
L1I WRITEBACK ACCESS:          0  HIT:          0  MISS:          0
L1I PREFETCH  REQUESTED:   16391778  ISSUED:   16391778  USEFUL:    2526840  USELESS:    1518432
L1I AVERAGE MISS LATENCY: 14.3288 cycles
L2C TOTAL     ACCESS:    9153196  HIT:    8590630  MISS:     562566
L2C LOAD      ACCESS:     892869  HIT:     764459  MISS:     128410
L2C RFO       ACCESS:     289692  HIT:     239338  MISS:      50354
L2C PREFETCH  ACCESS:    7353685  HIT:    6973049  MISS:     380636
L2C WRITEBACK ACCESS:     616950  HIT:     613784  MISS:       3166
L2C PREFETCH  REQUESTED:    5314788  ISSUED:    5305957  USEFUL:      10660  USELESS:     369433
L2C AVERAGE MISS LATENCY: 44.7611 cycles
LLC TOTAL     ACCESS:    1910783  HIT:    1838166  MISS:      72617
LLC LOAD      ACCESS:     128390  HIT:     110363  MISS:      18027
LLC RFO       ACCESS:      50352  HIT:      46189  MISS:       4163
LLC PREFETCH  ACCESS:    1632263  HIT:    1582279  MISS:      49984
LLC WRITEBACK ACCESS:      99778  HIT:      99335  MISS:        443
LLC PREFETCH  REQUESTED:          0  ISSUED:          0  USEFUL:       2135  USELESS:      48075
LLC AVERAGE MISS LATENCY: 157.894 cycles
Major fault: 0 Minor fault: 6056
CPU 0 L1D next line prefetcher final stats

DRAM Statistics
 CHANNEL 0
 RQ ROW_BUFFER_HIT:      20245  ROW_BUFFER_MISS:      51923
 DBUS_CONGESTED:      29560
 WQ ROW_BUFFER_HIT:        667  ROW_BUFFER_MISS:       5016  FULL:          0

 AVG_CONGESTED_CYCLE: 4

CPU 0 Branch Prediction Accuracy: 99.6894% MPKI: 0.58048 Average ROB Occupancy at Mispredict: 137.793

Branch types
NOT_BRANCH: 40655610 81.3112%
BRANCH_DIRECT_JUMP: 546484 1.09297%
BRANCH_INDIRECT: 172433 0.344866%
BRANCH_CONDITIONAL: 6207577 12.4152%
BRANCH_DIRECT_CALL: 1018498 2.037%
BRANCH_INDIRECT_CALL: 190373 0.380746%
BRANCH_RETURN: 1208857 2.41771%
BRANCH_OTHER: 0 0%

