Initialize SIGNATURE TABLE
ST_SET: 1
ST_WAY: 256
ST_TAG_BIT: 16
ST_TAG_MASK: ffff

Initialize PATTERN TABLE
PT_SET: 512
PT_WAY: 4
SIG_DELTA_BIT: 7
C_SIG_BIT: 4
C_DELTA_BIT: 4

Initialize PREFETCH FILTER
FILTER_SET: 1024

*** ChampSim Multicore Out-of-Order Simulator ***

Warmup Instructions: 50000000
Simulation Instructions: 50000000
Number of CPUs: 1
LLC sets: 2048
LLC ways: 16
Off-chip DRAM Size: 4096 MB Channels: 1 Width: 64-bit Data Rate: 3200 MT/s

CPU 0 runs /home/ykhodke/ChampSim/dpc3_traces/server_036.champsimtrace.xz
L1I D-JOLT instruction prefetcher has been constructed!
CPU 0 L1D next line prefetcher
Heartbeat CPU 0 instructions: 10000000 cycles: 3458964 heartbeat IPC: 2.89104 cumulative IPC: 2.89104 (Simulation time: 0 hr 3 min 17 sec) 
Heartbeat CPU 0 instructions: 20000000 cycles: 6924753 heartbeat IPC: 2.88535 cumulative IPC: 2.88819 (Simulation time: 0 hr 6 min 0 sec) 
Heartbeat CPU 0 instructions: 30000003 cycles: 10432814 heartbeat IPC: 2.85058 cumulative IPC: 2.87554 (Simulation time: 0 hr 8 min 42 sec) 
Heartbeat CPU 0 instructions: 40000000 cycles: 13895313 heartbeat IPC: 2.88809 cumulative IPC: 2.87867 (Simulation time: 0 hr 11 min 34 sec) 
Heartbeat CPU 0 instructions: 50000002 cycles: 17357016 heartbeat IPC: 2.88875 cumulative IPC: 2.88068 (Simulation time: 0 hr 14 min 31 sec) 

Warmup complete CPU 0 instructions: 50000002 cycles: 17357016 (Simulation time: 0 hr 14 min 31 sec) 

Heartbeat CPU 0 instructions: 60000000 cycles: 22942783 heartbeat IPC: 1.79026 cumulative IPC: 1.79026 (Simulation time: 0 hr 17 min 41 sec) 
Heartbeat CPU 0 instructions: 70000001 cycles: 28491730 heartbeat IPC: 1.80214 cumulative IPC: 1.79618 (Simulation time: 0 hr 21 min 0 sec) 
Heartbeat CPU 0 instructions: 80000001 cycles: 34071925 heartbeat IPC: 1.79205 cumulative IPC: 1.7948 (Simulation time: 0 hr 24 min 25 sec) 
Heartbeat CPU 0 instructions: 90000002 cycles: 39620574 heartbeat IPC: 1.80224 cumulative IPC: 1.79666 (Simulation time: 0 hr 26 min 56 sec) 
Heartbeat CPU 0 instructions: 100000001 cycles: 45162358 heartbeat IPC: 1.80447 cumulative IPC: 1.79822 (Simulation time: 0 hr 28 min 36 sec) 
Finished CPU 0 instructions: 50000003 cycles: 27805343 cumulative IPC: 1.79822 (Simulation time: 0 hr 28 min 36 sec) 

ChampSim completed all CPUs

Region of Interest Statistics

CPU 0 cumulative IPC: 1.79822 instructions: 50000003 cycles: 27805343
L1D TOTAL     ACCESS:   20486131  HIT:   20425913  MISS:      60218
L1D LOAD      ACCESS:    6673058  HIT:    6638219  MISS:      34839
L1D RFO       ACCESS:    7343059  HIT:    7335835  MISS:       7224
L1D PREFETCH  ACCESS:    6470014  HIT:    6451859  MISS:      18155
L1D WRITEBACK ACCESS:          0  HIT:          0  MISS:          0
L1D PREFETCH  REQUESTED:    6674015  ISSUED:    6502319  USEFUL:       5461  USELESS:      12695
L1D AVERAGE MISS LATENCY: 17.901 cycles
L1I TOTAL     ACCESS:   17832531  HIT:   12913744  MISS:    4918787
L1I LOAD      ACCESS:    8994419  HIT:    8985299  MISS:       9120
L1I RFO       ACCESS:          0  HIT:          0  MISS:          0
L1I PREFETCH  ACCESS:    8838112  HIT:    3928445  MISS:    4909667
L1I WRITEBACK ACCESS:          0  HIT:          0  MISS:          0
L1I PREFETCH  REQUESTED:    9190043  ISSUED:    9131429  USEFUL:    3991237  USELESS:     918415
L1I AVERAGE MISS LATENCY: 14.7294 cycles
L2C TOTAL     ACCESS:    6980664  HIT:    6978552  MISS:       2112
L2C LOAD      ACCESS:      43768  HIT:      43440  MISS:        328
L2C RFO       ACCESS:       7217  HIT:       7169  MISS:         48
L2C PREFETCH  ACCESS:    6914049  HIT:    6912319  MISS:       1730
L2C WRITEBACK ACCESS:      15630  HIT:      15624  MISS:          6
L2C PREFETCH  REQUESTED:    5772364  ISSUED:    5761686  USEFUL:        187  USELESS:        967
L2C AVERAGE MISS LATENCY: 164.574 cycles
LLC TOTAL     ACCESS:    1140076  HIT:    1137180  MISS:       2896
LLC LOAD      ACCESS:        328  HIT:        111  MISS:        217
LLC RFO       ACCESS:         48  HIT:         16  MISS:         32
LLC PREFETCH  ACCESS:    1138907  HIT:    1136270  MISS:       2637
LLC WRITEBACK ACCESS:        793  HIT:        783  MISS:         10
LLC PREFETCH  REQUESTED:          0  ISSUED:          0  USEFUL:         45  USELESS:        810
LLC AVERAGE MISS LATENCY: 262.049 cycles
Major fault: 0 Minor fault: 1934
CPU 0 L1D next line prefetcher final stats

DRAM Statistics
 CHANNEL 0
 RQ ROW_BUFFER_HIT:        553  ROW_BUFFER_MISS:       2333
 DBUS_CONGESTED:       1595
 WQ ROW_BUFFER_HIT:        261  ROW_BUFFER_MISS:       1621  FULL:          0

 AVG_CONGESTED_CYCLE: 6

CPU 0 Branch Prediction Accuracy: 99.8717% MPKI: 0.21174 Average ROB Occupancy at Mispredict: 227.821

Branch types
NOT_BRANCH: 41748435 83.4969%
BRANCH_DIRECT_JUMP: 468564 0.937128%
BRANCH_INDIRECT: 0 0%
BRANCH_CONDITIONAL: 5599754 11.1995%
BRANCH_DIRECT_CALL: 885105 1.77021%
BRANCH_INDIRECT_CALL: 206338 0.412676%
BRANCH_RETURN: 1091467 2.18293%
BRANCH_OTHER: 0 0%

