Initialize SIGNATURE TABLE
ST_SET: 1
ST_WAY: 256
ST_TAG_BIT: 16
ST_TAG_MASK: ffff

Initialize PATTERN TABLE
PT_SET: 512
PT_WAY: 4
SIG_DELTA_BIT: 7
C_SIG_BIT: 4
C_DELTA_BIT: 4

Initialize PREFETCH FILTER
FILTER_SET: 1024

*** ChampSim Multicore Out-of-Order Simulator ***

Warmup Instructions: 50000000
Simulation Instructions: 50000000
Number of CPUs: 1
LLC sets: 2048
LLC ways: 16
Off-chip DRAM Size: 4096 MB Channels: 1 Width: 64-bit Data Rate: 3200 MT/s

CPU 0 runs /home/ykhodke/ChampSim/dpc3_traces/server_026.champsimtrace.xz
LHT KB: 63.12
SCC KB: 1.56
Total KB: 64.69
CPU 0 L1D next line prefetcher
Heartbeat CPU 0 instructions: 10000000 cycles: 3529248 heartbeat IPC: 2.83346 cumulative IPC: 2.83346 (Simulation time: 0 hr 3 min 33 sec) 
Heartbeat CPU 0 instructions: 20000002 cycles: 7063695 heartbeat IPC: 2.8293 cumulative IPC: 2.83138 (Simulation time: 0 hr 7 min 8 sec) 
Heartbeat CPU 0 instructions: 30000000 cycles: 10587959 heartbeat IPC: 2.83747 cumulative IPC: 2.83341 (Simulation time: 0 hr 10 min 46 sec) 
Heartbeat CPU 0 instructions: 40000003 cycles: 14121160 heartbeat IPC: 2.8303 cumulative IPC: 2.83263 (Simulation time: 0 hr 14 min 32 sec) 
Heartbeat CPU 0 instructions: 50000000 cycles: 17647615 heartbeat IPC: 2.83571 cumulative IPC: 2.83324 (Simulation time: 0 hr 18 min 18 sec) 

Warmup complete CPU 0 instructions: 50000004 cycles: 17647616 (Simulation time: 0 hr 18 min 18 sec) 

*** Reached end of trace for Core: 0 Repeating trace: /home/ykhodke/ChampSim/dpc3_traces/server_026.champsimtrace.xz
Heartbeat CPU 0 instructions: 60000000 cycles: 25069638 heartbeat IPC: 1.34734 cumulative IPC: 1.34734 (Simulation time: 0 hr 21 min 31 sec) 
Heartbeat CPU 0 instructions: 70000003 cycles: 32393320 heartbeat IPC: 1.36543 cumulative IPC: 1.35633 (Simulation time: 0 hr 24 min 33 sec) 
Heartbeat CPU 0 instructions: 80000002 cycles: 39825520 heartbeat IPC: 1.3455 cumulative IPC: 1.3527 (Simulation time: 0 hr 27 min 24 sec) 
Heartbeat CPU 0 instructions: 90000002 cycles: 47160909 heartbeat IPC: 1.36325 cumulative IPC: 1.35532 (Simulation time: 0 hr 29 min 17 sec) 
Heartbeat CPU 0 instructions: 100000000 cycles: 54557300 heartbeat IPC: 1.35201 cumulative IPC: 1.35466 (Simulation time: 0 hr 30 min 20 sec) 
Finished CPU 0 instructions: 50000000 cycles: 36909685 cumulative IPC: 1.35466 (Simulation time: 0 hr 30 min 20 sec) 

ChampSim completed all CPUs

Region of Interest Statistics

CPU 0 cumulative IPC: 1.35466 instructions: 50000000 cycles: 36909685
L1D TOTAL     ACCESS:   20241508  HIT:   18596206  MISS:    1645302
L1D LOAD      ACCESS:    7160459  HIT:    6432326  MISS:     728133
L1D RFO       ACCESS:    6251170  HIT:    5964079  MISS:     287091
L1D PREFETCH  ACCESS:    6829879  HIT:    6199801  MISS:     630078
L1D WRITEBACK ACCESS:          0  HIT:          0  MISS:          0
L1D PREFETCH  REQUESTED:    7212593  ISSUED:    7077021  USEFUL:     152394  USELESS:     477696
L1D AVERAGE MISS LATENCY: 25.3309 cycles
L1I TOTAL     ACCESS:   23172398  HIT:   18021449  MISS:    5150949
L1I LOAD      ACCESS:    9274449  HIT:    8443495  MISS:     830954
L1I RFO       ACCESS:          0  HIT:          0  MISS:          0
L1I PREFETCH  ACCESS:   13897949  HIT:    9577954  MISS:    4319995
L1I WRITEBACK ACCESS:          0  HIT:          0  MISS:          0
L1I PREFETCH  REQUESTED:   20497555  ISSUED:   20497555  USEFUL:    2103181  USELESS:    2216856
L1I AVERAGE MISS LATENCY: 16.0242 cycles
L2C TOTAL     ACCESS:    9288104  HIT:    8131708  MISS:    1156396
L2C LOAD      ACCESS:     841491  HIT:     643123  MISS:     198368
L2C RFO       ACCESS:     284767  HIT:     166484  MISS:     118283
L2C PREFETCH  ACCESS:    7600653  HIT:    6768562  MISS:     832091
L2C WRITEBACK ACCESS:     561193  HIT:     553539  MISS:       7654
L2C PREFETCH  REQUESTED:    5667766  ISSUED:    5662838  USEFUL:      32363  USELESS:     798631
L2C AVERAGE MISS LATENCY: 36.7524 cycles
LLC TOTAL     ACCESS:    2727957  HIT:    2692705  MISS:      35252
LLC LOAD      ACCESS:     198264  HIT:     194652  MISS:       3612
LLC RFO       ACCESS:     118281  HIT:     103752  MISS:      14529
LLC PREFETCH  ACCESS:    2213495  HIT:    2196511  MISS:      16984
LLC WRITEBACK ACCESS:     197917  HIT:     197790  MISS:        127
LLC PREFETCH  REQUESTED:          0  ISSUED:          0  USEFUL:       1035  USELESS:      15971
LLC AVERAGE MISS LATENCY: 189.442 cycles
Major fault: 0 Minor fault: 2182
CPU 0 L1D next line prefetcher final stats

DRAM Statistics
 CHANNEL 0
 RQ ROW_BUFFER_HIT:      12293  ROW_BUFFER_MISS:      22825
 DBUS_CONGESTED:      23588
 WQ ROW_BUFFER_HIT:       1484  ROW_BUFFER_MISS:      14445  FULL:          0

 AVG_CONGESTED_CYCLE: 6

CPU 0 Branch Prediction Accuracy: 99.822% MPKI: 0.32584 Average ROB Occupancy at Mispredict: 154.766

Branch types
NOT_BRANCH: 40848554 81.6971%
BRANCH_DIRECT_JUMP: 522045 1.04409%
BRANCH_INDIRECT: 204034 0.408068%
BRANCH_CONDITIONAL: 6212958 12.4259%
BRANCH_DIRECT_CALL: 932391 1.86478%
BRANCH_INDIRECT_CALL: 173764 0.347528%
BRANCH_RETURN: 1106152 2.2123%
BRANCH_OTHER: 0 0%

