Initialize SIGNATURE TABLE
ST_SET: 1
ST_WAY: 256
ST_TAG_BIT: 16
ST_TAG_MASK: ffff

Initialize PATTERN TABLE
PT_SET: 512
PT_WAY: 4
SIG_DELTA_BIT: 7
C_SIG_BIT: 4
C_DELTA_BIT: 4

Initialize PREFETCH FILTER
FILTER_SET: 1024

*** ChampSim Multicore Out-of-Order Simulator ***

Warmup Instructions: 50000000
Simulation Instructions: 50000000
Number of CPUs: 1
LLC sets: 2048
LLC ways: 16
Off-chip DRAM Size: 4096 MB Channels: 1 Width: 64-bit Data Rate: 3200 MT/s

CPU 0 runs /home/ykhodke/ChampSim/dpc3_traces/server_031.champsimtrace.xz
LHT KB: 126.25
SCC KB: 1.56
Total KB: 127.81
CPU 0 L1D next line prefetcher
Heartbeat CPU 0 instructions: 10000003 cycles: 3524421 heartbeat IPC: 2.83735 cumulative IPC: 2.83735 (Simulation time: 0 hr 3 min 34 sec) 
Heartbeat CPU 0 instructions: 20000002 cycles: 7046980 heartbeat IPC: 2.83885 cumulative IPC: 2.8381 (Simulation time: 0 hr 7 min 13 sec) 
Heartbeat CPU 0 instructions: 30000002 cycles: 10570408 heartbeat IPC: 2.83815 cumulative IPC: 2.83811 (Simulation time: 0 hr 10 min 35 sec) 
Heartbeat CPU 0 instructions: 40000003 cycles: 14089223 heartbeat IPC: 2.84187 cumulative IPC: 2.83905 (Simulation time: 0 hr 13 min 38 sec) 
Heartbeat CPU 0 instructions: 50000001 cycles: 17610368 heartbeat IPC: 2.83998 cumulative IPC: 2.83924 (Simulation time: 0 hr 17 min 17 sec) 

Warmup complete CPU 0 instructions: 50000001 cycles: 17610368 (Simulation time: 0 hr 17 min 17 sec) 

Heartbeat CPU 0 instructions: 60000001 cycles: 25165678 heartbeat IPC: 1.32357 cumulative IPC: 1.32357 (Simulation time: 0 hr 21 min 21 sec) 
Heartbeat CPU 0 instructions: 70000002 cycles: 32766790 heartbeat IPC: 1.3156 cumulative IPC: 1.31957 (Simulation time: 0 hr 24 min 46 sec) 
*** Reached end of trace for Core: 0 Repeating trace: /home/ykhodke/ChampSim/dpc3_traces/server_031.champsimtrace.xz
Heartbeat CPU 0 instructions: 80000000 cycles: 40256420 heartbeat IPC: 1.33518 cumulative IPC: 1.32473 (Simulation time: 0 hr 27 min 31 sec) 
Heartbeat CPU 0 instructions: 90000003 cycles: 47759885 heartbeat IPC: 1.33272 cumulative IPC: 1.32672 (Simulation time: 0 hr 29 min 20 sec) 
Heartbeat CPU 0 instructions: 100000000 cycles: 55228147 heartbeat IPC: 1.339 cumulative IPC: 1.32916 (Simulation time: 0 hr 30 min 6 sec) 
Finished CPU 0 instructions: 50000000 cycles: 37617781 cumulative IPC: 1.32916 (Simulation time: 0 hr 30 min 6 sec) 

ChampSim completed all CPUs

Region of Interest Statistics

CPU 0 cumulative IPC: 1.32916 instructions: 50000000 cycles: 37617781
L1D TOTAL     ACCESS:   19604102  HIT:   17699130  MISS:    1904972
L1D LOAD      ACCESS:    6809878  HIT:    5937624  MISS:     872254
L1D RFO       ACCESS:    6319340  HIT:    6027383  MISS:     291957
L1D PREFETCH  ACCESS:    6474884  HIT:    5734123  MISS:     740761
L1D WRITEBACK ACCESS:          0  HIT:          0  MISS:          0
L1D PREFETCH  REQUESTED:    6872738  ISSUED:    6763942  USEFUL:     174491  USELESS:     566275
L1D AVERAGE MISS LATENCY: 22.3945 cycles
L1I TOTAL     ACCESS:   24431653  HIT:   19539665  MISS:    4891988
L1I LOAD      ACCESS:    9588831  HIT:    9057812  MISS:     531019
L1I RFO       ACCESS:          0  HIT:          0  MISS:          0
L1I PREFETCH  ACCESS:   14842822  HIT:   10481853  MISS:    4360969
L1I WRITEBACK ACCESS:          0  HIT:          0  MISS:          0
L1I PREFETCH  REQUESTED:   17175115  ISSUED:   17175115  USEFUL:    2623925  USELESS:    1737022
L1I AVERAGE MISS LATENCY: 14.3966 cycles
L2C TOTAL     ACCESS:    9470921  HIT:    8963064  MISS:     507857
L2C LOAD      ACCESS:     888964  HIT:     771516  MISS:     117448
L2C RFO       ACCESS:     289674  HIT:     242994  MISS:      46680
L2C PREFETCH  ACCESS:    7675343  HIT:    7334795  MISS:     340548
L2C WRITEBACK ACCESS:     616940  HIT:     613759  MISS:       3181
L2C PREFETCH  REQUESTED:    5486687  ISSUED:    5477295  USEFUL:       7482  USELESS:     332407
L2C AVERAGE MISS LATENCY: 45.9801 cycles
LLC TOTAL     ACCESS:    1905947  HIT:    1833932  MISS:      72015
LLC LOAD      ACCESS:     117390  HIT:      99456  MISS:      17934
LLC RFO       ACCESS:      46680  HIT:      42557  MISS:       4123
LLC PREFETCH  ACCESS:    1653926  HIT:    1604461  MISS:      49465
LLC WRITEBACK ACCESS:      87951  HIT:      87458  MISS:        493
LLC PREFETCH  REQUESTED:          0  ISSUED:          0  USEFUL:       2139  USELESS:      47367
LLC AVERAGE MISS LATENCY: 157.409 cycles
Major fault: 0 Minor fault: 6057
CPU 0 L1D next line prefetcher final stats

DRAM Statistics
 CHANNEL 0
 RQ ROW_BUFFER_HIT:      20503  ROW_BUFFER_MISS:      51005
 DBUS_CONGESTED:      29565
 WQ ROW_BUFFER_HIT:        651  ROW_BUFFER_MISS:       5128  FULL:          0

 AVG_CONGESTED_CYCLE: 4

CPU 0 Branch Prediction Accuracy: 99.6894% MPKI: 0.58048 Average ROB Occupancy at Mispredict: 140.937

Branch types
NOT_BRANCH: 40655564 81.3111%
BRANCH_DIRECT_JUMP: 546484 1.09297%
BRANCH_INDIRECT: 172433 0.344866%
BRANCH_CONDITIONAL: 6207562 12.4151%
BRANCH_DIRECT_CALL: 1018498 2.037%
BRANCH_INDIRECT_CALL: 190373 0.380746%
BRANCH_RETURN: 1208857 2.41771%
BRANCH_OTHER: 0 0%

