Initialize SIGNATURE TABLE
ST_SET: 1
ST_WAY: 256
ST_TAG_BIT: 16
ST_TAG_MASK: ffff

Initialize PATTERN TABLE
PT_SET: 512
PT_WAY: 4
SIG_DELTA_BIT: 7
C_SIG_BIT: 4
C_DELTA_BIT: 4

Initialize PREFETCH FILTER
FILTER_SET: 1024

*** ChampSim Multicore Out-of-Order Simulator ***

Warmup Instructions: 50000000
Simulation Instructions: 50000000
Number of CPUs: 1
LLC sets: 2048
LLC ways: 16
Off-chip DRAM Size: 4096 MB Channels: 1 Width: 64-bit Data Rate: 3200 MT/s

CPU 0 runs /home/ykhodke/ChampSim/dpc3_traces/server_025.champsimtrace.xz
L1I D-JOLT instruction prefetcher has been constructed!
CPU 0 L1D next line prefetcher
Heartbeat CPU 0 instructions: 10000003 cycles: 3523566 heartbeat IPC: 2.83803 cumulative IPC: 2.83803 (Simulation time: 0 hr 3 min 0 sec) 
Heartbeat CPU 0 instructions: 20000000 cycles: 7054127 heartbeat IPC: 2.83241 cumulative IPC: 2.83522 (Simulation time: 0 hr 6 min 25 sec) 
Heartbeat CPU 0 instructions: 30000001 cycles: 10576597 heartbeat IPC: 2.83892 cumulative IPC: 2.83645 (Simulation time: 0 hr 9 min 19 sec) 
Heartbeat CPU 0 instructions: 40000003 cycles: 14104707 heartbeat IPC: 2.83438 cumulative IPC: 2.83593 (Simulation time: 0 hr 12 min 24 sec) 
Heartbeat CPU 0 instructions: 50000001 cycles: 17631397 heartbeat IPC: 2.83552 cumulative IPC: 2.83585 (Simulation time: 0 hr 16 min 9 sec) 

Warmup complete CPU 0 instructions: 50000001 cycles: 17631397 (Simulation time: 0 hr 16 min 9 sec) 

Heartbeat CPU 0 instructions: 60000002 cycles: 24421192 heartbeat IPC: 1.4728 cumulative IPC: 1.4728 (Simulation time: 0 hr 19 min 14 sec) 
Heartbeat CPU 0 instructions: 70000000 cycles: 31319095 heartbeat IPC: 1.44972 cumulative IPC: 1.46117 (Simulation time: 0 hr 22 min 57 sec) 
Heartbeat CPU 0 instructions: 80000002 cycles: 38133232 heartbeat IPC: 1.46754 cumulative IPC: 1.46328 (Simulation time: 0 hr 25 min 54 sec) 
Heartbeat CPU 0 instructions: 90000001 cycles: 44609947 heartbeat IPC: 1.54399 cumulative IPC: 1.48266 (Simulation time: 0 hr 27 min 57 sec) 
Heartbeat CPU 0 instructions: 100000003 cycles: 50811545 heartbeat IPC: 1.61249 cumulative IPC: 1.50693 (Simulation time: 0 hr 29 min 9 sec) 
Finished CPU 0 instructions: 50000002 cycles: 33180148 cumulative IPC: 1.50693 (Simulation time: 0 hr 29 min 9 sec) 

ChampSim completed all CPUs

Region of Interest Statistics

CPU 0 cumulative IPC: 1.50693 instructions: 50000002 cycles: 33180148
L1D TOTAL     ACCESS:   19973291  HIT:   18547803  MISS:    1425488
L1D LOAD      ACCESS:    6951271  HIT:    6332529  MISS:     618742
L1D RFO       ACCESS:    6381674  HIT:    6133580  MISS:     248094
L1D PREFETCH  ACCESS:    6640346  HIT:    6081694  MISS:     558652
L1D WRITEBACK ACCESS:          0  HIT:          0  MISS:          0
L1D PREFETCH  REQUESTED:    6991621  ISSUED:    6816873  USEFUL:     131297  USELESS:     427348
L1D AVERAGE MISS LATENCY: 23.3085 cycles
L1I TOTAL     ACCESS:   15152210  HIT:   12435737  MISS:    2716473
L1I LOAD      ACCESS:    9495509  HIT:    9422601  MISS:      72908
L1I RFO       ACCESS:          0  HIT:          0  MISS:          0
L1I PREFETCH  ACCESS:    5656701  HIT:    3013136  MISS:    2643565
L1I WRITEBACK ACCESS:          0  HIT:          0  MISS:          0
L1I PREFETCH  REQUESTED:    6076441  ISSUED:    6047652  USEFUL:    2385699  USELESS:     257881
L1I AVERAGE MISS LATENCY: 19.1923 cycles
L2C TOTAL     ACCESS:    5778391  HIT:    5061590  MISS:     716801
L2C LOAD      ACCESS:     630617  HIT:     510924  MISS:     119693
L2C RFO       ACCESS:     246637  HIT:     173574  MISS:      73063
L2C PREFETCH  ACCESS:    4404385  HIT:    3882734  MISS:     521651
L2C WRITEBACK ACCESS:     496752  HIT:     494358  MISS:       2394
L2C PREFETCH  REQUESTED:    3958044  ISSUED:    3953353  USEFUL:      10022  USELESS:     511476
L2C AVERAGE MISS LATENCY: 37.5552 cycles
LLC TOTAL     ACCESS:    1912278  HIT:    1883337  MISS:      28941
LLC LOAD      ACCESS:     119586  HIT:     116377  MISS:       3209
LLC RFO       ACCESS:      73055  HIT:      62243  MISS:      10812
LLC PREFETCH  ACCESS:    1590355  HIT:    1575622  MISS:      14733
LLC WRITEBACK ACCESS:     129282  HIT:     129095  MISS:        187
LLC PREFETCH  REQUESTED:          0  ISSUED:          0  USEFUL:       1044  USELESS:      13631
LLC AVERAGE MISS LATENCY: 179.955 cycles
Major fault: 0 Minor fault: 2465
CPU 0 L1D next line prefetcher final stats

DRAM Statistics
 CHANNEL 0
 RQ ROW_BUFFER_HIT:       9415  ROW_BUFFER_MISS:      19333
 DBUS_CONGESTED:      18402
 WQ ROW_BUFFER_HIT:       1395  ROW_BUFFER_MISS:      11313  FULL:          0

 AVG_CONGESTED_CYCLE: 6

CPU 0 Branch Prediction Accuracy: 99.8142% MPKI: 0.34676 Average ROB Occupancy at Mispredict: 200.545

Branch types
NOT_BRANCH: 40668918 81.3378%
BRANCH_DIRECT_JUMP: 531701 1.0634%
BRANCH_INDIRECT: 199025 0.39805%
BRANCH_CONDITIONAL: 6211500 12.423%
BRANCH_DIRECT_CALL: 1010912 2.02182%
BRANCH_INDIRECT_CALL: 183501 0.367002%
BRANCH_RETURN: 1194416 2.38883%
BRANCH_OTHER: 0 0%

