Initialize SIGNATURE TABLE
ST_SET: 1
ST_WAY: 256
ST_TAG_BIT: 16
ST_TAG_MASK: ffff

Initialize PATTERN TABLE
PT_SET: 512
PT_WAY: 4
SIG_DELTA_BIT: 7
C_SIG_BIT: 4
C_DELTA_BIT: 4

Initialize PREFETCH FILTER
FILTER_SET: 1024

*** ChampSim Multicore Out-of-Order Simulator ***

Warmup Instructions: 50000000
Simulation Instructions: 50000000
Number of CPUs: 1
LLC sets: 2048
LLC ways: 16
Off-chip DRAM Size: 4096 MB Channels: 1 Width: 64-bit Data Rate: 3200 MT/s

CPU 0 runs /home/ykhodke/ChampSim/dpc3_traces/spec_gobmk_002.champsimtrace.xz
LHT KB: 63.12
SCC KB: 1.56
Total KB: 64.69
CPU 0 L1D next line prefetcher
Heartbeat CPU 0 instructions: 10000001 cycles: 3287594 heartbeat IPC: 3.04174 cumulative IPC: 3.04174 (Simulation time: 0 hr 2 min 40 sec) 
Heartbeat CPU 0 instructions: 20000000 cycles: 6619207 heartbeat IPC: 3.00155 cumulative IPC: 3.02151 (Simulation time: 0 hr 5 min 26 sec) 
Heartbeat CPU 0 instructions: 30000000 cycles: 9957170 heartbeat IPC: 2.99584 cumulative IPC: 3.0129 (Simulation time: 0 hr 8 min 12 sec) 
Heartbeat CPU 0 instructions: 40000000 cycles: 13266585 heartbeat IPC: 3.02168 cumulative IPC: 3.01509 (Simulation time: 0 hr 10 min 59 sec) 
Heartbeat CPU 0 instructions: 50000003 cycles: 16530112 heartbeat IPC: 3.06417 cumulative IPC: 3.02478 (Simulation time: 0 hr 13 min 48 sec) 

Warmup complete CPU 0 instructions: 50000003 cycles: 16530112 (Simulation time: 0 hr 13 min 48 sec) 

Heartbeat CPU 0 instructions: 60000003 cycles: 23915499 heartbeat IPC: 1.35403 cumulative IPC: 1.35403 (Simulation time: 0 hr 16 min 10 sec) 
Heartbeat CPU 0 instructions: 70000003 cycles: 31250878 heartbeat IPC: 1.36326 cumulative IPC: 1.35862 (Simulation time: 0 hr 18 min 31 sec) 
Heartbeat CPU 0 instructions: 80000000 cycles: 38461470 heartbeat IPC: 1.38685 cumulative IPC: 1.3679 (Simulation time: 0 hr 20 min 48 sec) 
Heartbeat CPU 0 instructions: 90000001 cycles: 45964052 heartbeat IPC: 1.33287 cumulative IPC: 1.35898 (Simulation time: 0 hr 22 min 53 sec) 
Heartbeat CPU 0 instructions: 100000003 cycles: 53681549 heartbeat IPC: 1.29576 cumulative IPC: 1.34584 (Simulation time: 0 hr 25 min 5 sec) 
Finished CPU 0 instructions: 50000000 cycles: 37151437 cumulative IPC: 1.34584 (Simulation time: 0 hr 25 min 5 sec) 

ChampSim completed all CPUs

Region of Interest Statistics

CPU 0 cumulative IPC: 1.34584 instructions: 50000000 cycles: 37151437
L1D TOTAL     ACCESS:   17627205  HIT:   17504083  MISS:     123122
L1D LOAD      ACCESS:    6659278  HIT:    6625013  MISS:      34265
L1D RFO       ACCESS:    4387485  HIT:    4344832  MISS:      42653
L1D PREFETCH  ACCESS:    6580442  HIT:    6534238  MISS:      46204
L1D WRITEBACK ACCESS:          0  HIT:          0  MISS:          0
L1D PREFETCH  REQUESTED:    6661748  ISSUED:    6594415  USEFUL:      17146  USELESS:      29241
L1D AVERAGE MISS LATENCY: 51.4292 cycles
L1I TOTAL     ACCESS:   23478734  HIT:   21367411  MISS:    2111323
L1I LOAD      ACCESS:    8864021  HIT:    8736533  MISS:     127488
L1I RFO       ACCESS:          0  HIT:          0  MISS:          0
L1I PREFETCH  ACCESS:   14614713  HIT:   12630878  MISS:    1983835
L1I WRITEBACK ACCESS:          0  HIT:          0  MISS:          0
L1I PREFETCH  REQUESTED:   16296102  ISSUED:   16296102  USEFUL:     982329  USELESS:    1001536
L1I AVERAGE MISS LATENCY: 13.7415 cycles
L2C TOTAL     ACCESS:    3075450  HIT:    3035645  MISS:      39805
L2C LOAD      ACCESS:      57254  HIT:      44460  MISS:      12794
L2C RFO       ACCESS:      42508  HIT:      39413  MISS:       3095
L2C PREFETCH  ACCESS:    2901482  HIT:    2877761  MISS:      23721
L2C WRITEBACK ACCESS:      74206  HIT:      74011  MISS:        195
L2C PREFETCH  REQUESTED:    1216088  ISSUED:    1216086  USEFUL:       2413  USELESS:      21261
L2C AVERAGE MISS LATENCY: 125.092 cycles
LLC TOTAL     ACCESS:     105980  HIT:      75467  MISS:      30513
LLC LOAD      ACCESS:      12794  HIT:       4547  MISS:       8247
LLC RFO       ACCESS:       3095  HIT:       1463  MISS:       1632
LLC PREFETCH  ACCESS:      71493  HIT:      51416  MISS:      20077
LLC WRITEBACK ACCESS:      18598  HIT:      18041  MISS:        557
LLC PREFETCH  REQUESTED:          0  ISSUED:          0  USEFUL:       1575  USELESS:      18513
LLC AVERAGE MISS LATENCY: 183.914 cycles
Major fault: 0 Minor fault: 2787
CPU 0 L1D next line prefetcher final stats

DRAM Statistics
 CHANNEL 0
 RQ ROW_BUFFER_HIT:       2564  ROW_BUFFER_MISS:      27391
 DBUS_CONGESTED:      14499
 WQ ROW_BUFFER_HIT:        669  ROW_BUFFER_MISS:      12717  FULL:          0

 AVG_CONGESTED_CYCLE: 4

CPU 0 Branch Prediction Accuracy: 93.9974% MPKI: 10.2447 Average ROB Occupancy at Mispredict: 40.1534

Branch types
NOT_BRANCH: 41466053 82.9321%
BRANCH_DIRECT_JUMP: 464313 0.928626%
BRANCH_INDIRECT: 32 6.4e-05%
BRANCH_CONDITIONAL: 7069451 14.1389%
BRANCH_DIRECT_CALL: 499587 0.999174%
BRANCH_INDIRECT_CALL: 342 0.000684%
BRANCH_RETURN: 499906 0.999812%
BRANCH_OTHER: 0 0%

