Initialize SIGNATURE TABLE
ST_SET: 1
ST_WAY: 256
ST_TAG_BIT: 16
ST_TAG_MASK: ffff

Initialize PATTERN TABLE
PT_SET: 512
PT_WAY: 4
SIG_DELTA_BIT: 7
C_SIG_BIT: 4
C_DELTA_BIT: 4

Initialize PREFETCH FILTER
FILTER_SET: 1024

*** ChampSim Multicore Out-of-Order Simulator ***

Warmup Instructions: 50000000
Simulation Instructions: 50000000
Number of CPUs: 1
LLC sets: 2048
LLC ways: 16
Off-chip DRAM Size: 4096 MB Channels: 1 Width: 64-bit Data Rate: 3200 MT/s

CPU 0 runs /home/ykhodke/ChampSim/dpc3_traces/spec_perlbench_001.champsimtrace.xz
LHT KB: 126.25
SCC KB: 1.56
Total KB: 127.81
CPU 0 L1D next line prefetcher
Heartbeat CPU 0 instructions: 10000000 cycles: 3275773 heartbeat IPC: 3.05271 cumulative IPC: 3.05271 (Simulation time: 0 hr 2 min 49 sec) 
Heartbeat CPU 0 instructions: 20000000 cycles: 6540334 heartbeat IPC: 3.0632 cumulative IPC: 3.05795 (Simulation time: 0 hr 6 min 4 sec) 
Heartbeat CPU 0 instructions: 30000002 cycles: 9856964 heartbeat IPC: 3.01511 cumulative IPC: 3.04353 (Simulation time: 0 hr 9 min 6 sec) 
Heartbeat CPU 0 instructions: 40000002 cycles: 13112354 heartbeat IPC: 3.07183 cumulative IPC: 3.05056 (Simulation time: 0 hr 12 min 6 sec) 
Heartbeat CPU 0 instructions: 50000001 cycles: 16386145 heartbeat IPC: 3.05456 cumulative IPC: 3.05136 (Simulation time: 0 hr 14 min 38 sec) 

Warmup complete CPU 0 instructions: 50000001 cycles: 16386145 (Simulation time: 0 hr 14 min 38 sec) 

Heartbeat CPU 0 instructions: 60000001 cycles: 24603270 heartbeat IPC: 1.21697 cumulative IPC: 1.21697 (Simulation time: 0 hr 17 min 30 sec) 
Heartbeat CPU 0 instructions: 70000003 cycles: 32716152 heartbeat IPC: 1.23261 cumulative IPC: 1.22474 (Simulation time: 0 hr 20 min 31 sec) 
Heartbeat CPU 0 instructions: 80000000 cycles: 41145157 heartbeat IPC: 1.18638 cumulative IPC: 1.21168 (Simulation time: 0 hr 23 min 34 sec) 
Heartbeat CPU 0 instructions: 90000000 cycles: 46863854 heartbeat IPC: 1.74865 cumulative IPC: 1.31243 (Simulation time: 0 hr 25 min 45 sec) 
Heartbeat CPU 0 instructions: 100000002 cycles: 52715667 heartbeat IPC: 1.70887 cumulative IPC: 1.37629 (Simulation time: 0 hr 27 min 19 sec) 
Finished CPU 0 instructions: 50000001 cycles: 36329522 cumulative IPC: 1.37629 (Simulation time: 0 hr 27 min 19 sec) 

ChampSim completed all CPUs

Region of Interest Statistics

CPU 0 cumulative IPC: 1.37629 instructions: 50000001 cycles: 36329522
L1D TOTAL     ACCESS:   20695703  HIT:   20280611  MISS:     415092
L1D LOAD      ACCESS:    7177569  HIT:    6963901  MISS:     213668
L1D RFO       ACCESS:    6541954  HIT:    6523435  MISS:      18519
L1D PREFETCH  ACCESS:    6976180  HIT:    6793275  MISS:     182905
L1D WRITEBACK ACCESS:          0  HIT:          0  MISS:          0
L1D PREFETCH  REQUESTED:    7193440  ISSUED:    7077267  USEFUL:      55228  USELESS:     127672
L1D AVERAGE MISS LATENCY: 58.7309 cycles
L1I TOTAL     ACCESS:   17179784  HIT:   16421462  MISS:     758322
L1I LOAD      ACCESS:    9139594  HIT:    9034122  MISS:     105472
L1I RFO       ACCESS:          0  HIT:          0  MISS:          0
L1I PREFETCH  ACCESS:    8040190  HIT:    7387340  MISS:     652850
L1I WRITEBACK ACCESS:          0  HIT:          0  MISS:          0
L1I PREFETCH  REQUESTED:    8991294  ISSUED:    8991294  USEFUL:     355647  USELESS:     297203
L1I AVERAGE MISS LATENCY: 14.9447 cycles
L2C TOTAL     ACCESS:    1583751  HIT:    1412196  MISS:     171555
L2C LOAD      ACCESS:     217565  HIT:     140393  MISS:      77172
L2C RFO       ACCESS:      18271  HIT:      12680  MISS:       5591
L2C PREFETCH  ACCESS:    1268974  HIT:    1180699  MISS:      88275
L2C WRITEBACK ACCESS:      78941  HIT:      78424  MISS:        517
L2C PREFETCH  REQUESTED:     834967  ISSUED:     834959  USEFUL:       5192  USELESS:      83004
L2C AVERAGE MISS LATENCY: 119.493 cycles
LLC TOTAL     ACCESS:     399833  HIT:     259433  MISS:     140400
LLC LOAD      ACCESS:      77170  HIT:      29432  MISS:      47738
LLC RFO       ACCESS:       5591  HIT:       2501  MISS:       3090
LLC PREFETCH  ACCESS:     291129  HIT:     202006  MISS:      89123
LLC WRITEBACK ACCESS:      25943  HIT:      25494  MISS:        449
LLC PREFETCH  REQUESTED:          0  ISSUED:          0  USEFUL:      13066  USELESS:      76441
LLC AVERAGE MISS LATENCY: 160.651 cycles
Major fault: 0 Minor fault: 6371
CPU 0 L1D next line prefetcher final stats

DRAM Statistics
 CHANNEL 0
 RQ ROW_BUFFER_HIT:      32138  ROW_BUFFER_MISS:     107812
 DBUS_CONGESTED:      58068
 WQ ROW_BUFFER_HIT:       4160  ROW_BUFFER_MISS:      13144  FULL:          0

 AVG_CONGESTED_CYCLE: 4

CPU 0 Branch Prediction Accuracy: 98.7418% MPKI: 2.47758 Average ROB Occupancy at Mispredict: 79.4081

Branch types
NOT_BRANCH: 40154100 80.3082%
BRANCH_DIRECT_JUMP: 817094 1.63419%
BRANCH_INDIRECT: 303787 0.607574%
BRANCH_CONDITIONAL: 7492103 14.9842%
BRANCH_DIRECT_CALL: 471777 0.943554%
BRANCH_INDIRECT_CALL: 144546 0.289092%
BRANCH_RETURN: 616324 1.23265%
BRANCH_OTHER: 0 0%

