Initialize SIGNATURE TABLE
ST_SET: 1
ST_WAY: 256
ST_TAG_BIT: 16
ST_TAG_MASK: ffff

Initialize PATTERN TABLE
PT_SET: 512
PT_WAY: 4
SIG_DELTA_BIT: 7
C_SIG_BIT: 4
C_DELTA_BIT: 4

Initialize PREFETCH FILTER
FILTER_SET: 1024

*** ChampSim Multicore Out-of-Order Simulator ***

Warmup Instructions: 50000000
Simulation Instructions: 50000000
Number of CPUs: 1
LLC sets: 2048
LLC ways: 16
Off-chip DRAM Size: 4096 MB Channels: 1 Width: 64-bit Data Rate: 3200 MT/s

CPU 0 runs /home/ykhodke/ChampSim/dpc3_traces/spec_perlbench_001.champsimtrace.xz
LHT KB: 126.25
SCC KB: 1.56
Total KB: 127.81
CPU 0 L1D next line prefetcher
Heartbeat CPU 0 instructions: 10000000 cycles: 3275916 heartbeat IPC: 3.05258 cumulative IPC: 3.05258 (Simulation time: 0 hr 2 min 38 sec) 
Heartbeat CPU 0 instructions: 20000000 cycles: 6540599 heartbeat IPC: 3.06308 cumulative IPC: 3.05782 (Simulation time: 0 hr 5 min 26 sec) 
Heartbeat CPU 0 instructions: 30000002 cycles: 9857438 heartbeat IPC: 3.01492 cumulative IPC: 3.04339 (Simulation time: 0 hr 8 min 18 sec) 
Heartbeat CPU 0 instructions: 40000002 cycles: 13112856 heartbeat IPC: 3.0718 cumulative IPC: 3.05044 (Simulation time: 0 hr 10 min 52 sec) 
Heartbeat CPU 0 instructions: 50000001 cycles: 16386602 heartbeat IPC: 3.0546 cumulative IPC: 3.05127 (Simulation time: 0 hr 13 min 21 sec) 

Warmup complete CPU 0 instructions: 50000001 cycles: 16386602 (Simulation time: 0 hr 13 min 21 sec) 

Heartbeat CPU 0 instructions: 60000001 cycles: 24625337 heartbeat IPC: 1.21378 cumulative IPC: 1.21378 (Simulation time: 0 hr 16 min 7 sec) 
Heartbeat CPU 0 instructions: 70000003 cycles: 32741143 heartbeat IPC: 1.23216 cumulative IPC: 1.2229 (Simulation time: 0 hr 19 min 0 sec) 
Heartbeat CPU 0 instructions: 80000000 cycles: 41178977 heartbeat IPC: 1.18514 cumulative IPC: 1.21005 (Simulation time: 0 hr 21 min 36 sec) 
Heartbeat CPU 0 instructions: 90000000 cycles: 46901311 heartbeat IPC: 1.74754 cumulative IPC: 1.31084 (Simulation time: 0 hr 23 min 41 sec) 
Heartbeat CPU 0 instructions: 100000002 cycles: 52758843 heartbeat IPC: 1.7072 cumulative IPC: 1.37467 (Simulation time: 0 hr 25 min 50 sec) 
Finished CPU 0 instructions: 50000001 cycles: 36372241 cumulative IPC: 1.37467 (Simulation time: 0 hr 25 min 50 sec) 

ChampSim completed all CPUs

Region of Interest Statistics

CPU 0 cumulative IPC: 1.37467 instructions: 50000001 cycles: 36372241
L1D TOTAL     ACCESS:   20700809  HIT:   20285728  MISS:     415081
L1D LOAD      ACCESS:    7180086  HIT:    6966373  MISS:     213713
L1D RFO       ACCESS:    6541949  HIT:    6523433  MISS:      18516
L1D PREFETCH  ACCESS:    6978774  HIT:    6795922  MISS:     182852
L1D WRITEBACK ACCESS:          0  HIT:          0  MISS:          0
L1D PREFETCH  REQUESTED:    7195912  ISSUED:    7079800  USEFUL:      55179  USELESS:     127668
L1D AVERAGE MISS LATENCY: 58.9721 cycles
L1I TOTAL     ACCESS:   17911713  HIT:   16978227  MISS:     933486
L1I LOAD      ACCESS:    9145164  HIT:    9038883  MISS:     106281
L1I RFO       ACCESS:          0  HIT:          0  MISS:          0
L1I PREFETCH  ACCESS:    8766549  HIT:    7939344  MISS:     827205
L1I WRITEBACK ACCESS:          0  HIT:          0  MISS:          0
L1I PREFETCH  REQUESTED:    9850643  ISSUED:    9850641  USEFUL:     400337  USELESS:     426870
L1I AVERAGE MISS LATENCY: 14.9985 cycles
L2C TOTAL     ACCESS:    1806984  HIT:    1635877  MISS:     171107
L2C LOAD      ACCESS:     219982  HIT:     142849  MISS:      77133
L2C RFO       ACCESS:      18268  HIT:      12583  MISS:       5685
L2C PREFETCH  ACCESS:    1489790  HIT:    1401987  MISS:      87803
L2C WRITEBACK ACCESS:      78944  HIT:      78458  MISS:        486
L2C PREFETCH  REQUESTED:     928753  ISSUED:     928735  USEFUL:       5323  USELESS:      82416
L2C AVERAGE MISS LATENCY: 120.33 cycles
LLC TOTAL     ACCESS:     412143  HIT:     273077  MISS:     139066
LLC LOAD      ACCESS:      77130  HIT:      29032  MISS:      48098
LLC RFO       ACCESS:       5685  HIT:       2582  MISS:       3103
LLC PREFETCH  ACCESS:     303198  HIT:     215775  MISS:      87423
LLC WRITEBACK ACCESS:      26130  HIT:      25688  MISS:        442
LLC PREFETCH  REQUESTED:          0  ISSUED:          0  USEFUL:      12586  USELESS:      75227
LLC AVERAGE MISS LATENCY: 160.59 cycles
Major fault: 0 Minor fault: 6372
CPU 0 L1D next line prefetcher final stats

DRAM Statistics
 CHANNEL 0
 RQ ROW_BUFFER_HIT:      31723  ROW_BUFFER_MISS:     106896
 DBUS_CONGESTED:      57188
 WQ ROW_BUFFER_HIT:       4354  ROW_BUFFER_MISS:      12909  FULL:          0

 AVG_CONGESTED_CYCLE: 4

CPU 0 Branch Prediction Accuracy: 98.7418% MPKI: 2.47758 Average ROB Occupancy at Mispredict: 79.2543

Branch types
NOT_BRANCH: 40154100 80.3082%
BRANCH_DIRECT_JUMP: 817094 1.63419%
BRANCH_INDIRECT: 303787 0.607574%
BRANCH_CONDITIONAL: 7492103 14.9842%
BRANCH_DIRECT_CALL: 471777 0.943554%
BRANCH_INDIRECT_CALL: 144546 0.289092%
BRANCH_RETURN: 616324 1.23265%
BRANCH_OTHER: 0 0%

