Initialize SIGNATURE TABLE
ST_SET: 1
ST_WAY: 256
ST_TAG_BIT: 16
ST_TAG_MASK: ffff

Initialize PATTERN TABLE
PT_SET: 512
PT_WAY: 4
SIG_DELTA_BIT: 7
C_SIG_BIT: 4
C_DELTA_BIT: 4

Initialize PREFETCH FILTER
FILTER_SET: 1024

*** ChampSim Multicore Out-of-Order Simulator ***

Warmup Instructions: 50000000
Simulation Instructions: 50000000
Number of CPUs: 1
LLC sets: 2048
LLC ways: 16
Off-chip DRAM Size: 4096 MB Channels: 1 Width: 64-bit Data Rate: 3200 MT/s

CPU 0 runs /home/ykhodke/ChampSim/dpc3_traces/spec_gcc_003.champsimtrace.xz
L1I D-JOLT instruction prefetcher has been constructed!
CPU 0 L1D next line prefetcher
Heartbeat CPU 0 instructions: 10000001 cycles: 3482155 heartbeat IPC: 2.87179 cumulative IPC: 2.87179 (Simulation time: 0 hr 2 min 33 sec) 
Heartbeat CPU 0 instructions: 20000000 cycles: 6950115 heartbeat IPC: 2.88354 cumulative IPC: 2.87765 (Simulation time: 0 hr 5 min 0 sec) 
Heartbeat CPU 0 instructions: 30000002 cycles: 10392512 heartbeat IPC: 2.90495 cumulative IPC: 2.88669 (Simulation time: 0 hr 7 min 27 sec) 
Heartbeat CPU 0 instructions: 40000000 cycles: 13861142 heartbeat IPC: 2.88298 cumulative IPC: 2.88577 (Simulation time: 0 hr 9 min 55 sec) 
Heartbeat CPU 0 instructions: 50000001 cycles: 17169027 heartbeat IPC: 3.02308 cumulative IPC: 2.91222 (Simulation time: 0 hr 12 min 17 sec) 

Warmup complete CPU 0 instructions: 50000001 cycles: 17169027 (Simulation time: 0 hr 12 min 17 sec) 

Heartbeat CPU 0 instructions: 60000000 cycles: 56885454 heartbeat IPC: 0.251785 cumulative IPC: 0.251785 (Simulation time: 0 hr 17 min 37 sec) 
Heartbeat CPU 0 instructions: 70000000 cycles: 99558628 heartbeat IPC: 0.234339 cumulative IPC: 0.242749 (Simulation time: 0 hr 23 min 33 sec) 
Heartbeat CPU 0 instructions: 80000003 cycles: 143191728 heartbeat IPC: 0.229184 cumulative IPC: 0.238052 (Simulation time: 0 hr 28 min 30 sec) 
Heartbeat CPU 0 instructions: 90000002 cycles: 180135674 heartbeat IPC: 0.27068 cumulative IPC: 0.245449 (Simulation time: 0 hr 30 min 1 sec) 
Heartbeat CPU 0 instructions: 100000001 cycles: 226591745 heartbeat IPC: 0.215257 cumulative IPC: 0.238752 (Simulation time: 0 hr 30 min 43 sec) 
Finished CPU 0 instructions: 50000000 cycles: 209422718 cumulative IPC: 0.238752 (Simulation time: 0 hr 30 min 43 sec) 

ChampSim completed all CPUs

Region of Interest Statistics

CPU 0 cumulative IPC: 0.238752 instructions: 50000000 cycles: 209422718
L1D TOTAL     ACCESS:   16800755  HIT:   11076487  MISS:    5724268
L1D LOAD      ACCESS:    4544478  HIT:    4161290  MISS:     383188
L1D RFO       ACCESS:    8202351  HIT:    3150620  MISS:    5051731
L1D PREFETCH  ACCESS:    4053926  HIT:    3764577  MISS:     289349
L1D WRITEBACK ACCESS:          0  HIT:          0  MISS:          0
L1D PREFETCH  REQUESTED:    4561599  ISSUED:    4501677  USEFUL:     152023  USELESS:     137506
L1D AVERAGE MISS LATENCY: 499.855 cycles
L1I TOTAL     ACCESS:   15608611  HIT:   14307243  MISS:    1301368
L1I LOAD      ACCESS:   11286229  HIT:   11225100  MISS:      61129
L1I RFO       ACCESS:          0  HIT:          0  MISS:          0
L1I PREFETCH  ACCESS:    4322382  HIT:    3082143  MISS:    1240239
L1I WRITEBACK ACCESS:          0  HIT:          0  MISS:          0
L1I PREFETCH  REQUESTED:    4880933  ISSUED:    4674399  USEFUL:     791503  USELESS:     448740
L1I AVERAGE MISS LATENCY: 64.4463 cycles
L2C TOTAL     ACCESS:   12578483  HIT:    6489247  MISS:    6089236
L2C LOAD      ACCESS:     233330  HIT:      62919  MISS:     170411
L2C RFO       ACCESS:    5049816  HIT:       6440  MISS:    5043376
L2C PREFETCH  ACCESS:    2137466  HIT:    1262631  MISS:     874835
L2C WRITEBACK ACCESS:    5157871  HIT:    5157257  MISS:        614
L2C PREFETCH  REQUESTED:    1989163  ISSUED:    1989140  USEFUL:      24069  USELESS:     847898
L2C AVERAGE MISS LATENCY: 470.403 cycles
LLC TOTAL     ACCESS:   11994988  HIT:    7243307  MISS:    4751681
LLC LOAD      ACCESS:     170368  HIT:     127565  MISS:      42803
LLC RFO       ACCESS:    5043376  HIT:     644045  MISS:    4399331
LLC PREFETCH  ACCESS:    1647485  HIT:    1337938  MISS:     309547
LLC WRITEBACK ACCESS:    5133759  HIT:    5133759  MISS:          0
LLC PREFETCH  REQUESTED:          0  ISSUED:          0  USEFUL:      11501  USELESS:     297858
LLC AVERAGE MISS LATENCY: 574.747 cycles
Major fault: 0 Minor fault: 2819
CPU 0 L1D next line prefetcher final stats

DRAM Statistics
 CHANNEL 0
 RQ ROW_BUFFER_HIT:    1445319  ROW_BUFFER_MISS:    3306105
 DBUS_CONGESTED:    8194446
 WQ ROW_BUFFER_HIT:    1174330  ROW_BUFFER_MISS:    3254721  FULL:          0

 AVG_CONGESTED_CYCLE: 6

CPU 0 Branch Prediction Accuracy: 99.665% MPKI: 0.78342 Average ROB Occupancy at Mispredict: 124.292

Branch types
NOT_BRANCH: 38305856 76.6117%
BRANCH_DIRECT_JUMP: 384281 0.768562%
BRANCH_INDIRECT: 71949 0.143898%
BRANCH_CONDITIONAL: 9879825 19.7597%
BRANCH_DIRECT_CALL: 650586 1.30117%
BRANCH_INDIRECT_CALL: 28456 0.056912%
BRANCH_RETURN: 679046 1.35809%
BRANCH_OTHER: 0 0%

