Initialize SIGNATURE TABLE
ST_SET: 1
ST_WAY: 256
ST_TAG_BIT: 16
ST_TAG_MASK: ffff

Initialize PATTERN TABLE
PT_SET: 512
PT_WAY: 4
SIG_DELTA_BIT: 7
C_SIG_BIT: 4
C_DELTA_BIT: 4

Initialize PREFETCH FILTER
FILTER_SET: 1024

*** ChampSim Multicore Out-of-Order Simulator ***

Warmup Instructions: 50000000
Simulation Instructions: 50000000
Number of CPUs: 1
LLC sets: 2048
LLC ways: 16
Off-chip DRAM Size: 4096 MB Channels: 1 Width: 64-bit Data Rate: 3200 MT/s

CPU 0 runs /home/ykhodke/ChampSim/dpc3_traces/spec_perlbench_001.champsimtrace.xz
CPU 0 EPI prefetcher
CPU 0 L1D next line prefetcher
Heartbeat CPU 0 instructions: 10000000 cycles: 3276370 heartbeat IPC: 3.05216 cumulative IPC: 3.05216 (Simulation time: 0 hr 3 min 43 sec) 
Heartbeat CPU 0 instructions: 20000000 cycles: 6541897 heartbeat IPC: 3.06229 cumulative IPC: 3.05722 (Simulation time: 0 hr 7 min 59 sec) 
Heartbeat CPU 0 instructions: 30000002 cycles: 9859174 heartbeat IPC: 3.01452 cumulative IPC: 3.04285 (Simulation time: 0 hr 12 min 18 sec) 
Heartbeat CPU 0 instructions: 40000002 cycles: 13114816 heartbeat IPC: 3.07159 cumulative IPC: 3.04999 (Simulation time: 0 hr 16 min 19 sec) 
Heartbeat CPU 0 instructions: 50000001 cycles: 16388719 heartbeat IPC: 3.05446 cumulative IPC: 3.05088 (Simulation time: 0 hr 20 min 14 sec) 

Warmup complete CPU 0 instructions: 50000001 cycles: 16388719 (Simulation time: 0 hr 20 min 14 sec) 

Heartbeat CPU 0 instructions: 60000001 cycles: 24627055 heartbeat IPC: 1.21384 cumulative IPC: 1.21384 (Simulation time: 0 hr 23 min 27 sec) 
Heartbeat CPU 0 instructions: 70000003 cycles: 32734964 heartbeat IPC: 1.23336 cumulative IPC: 1.22352 (Simulation time: 0 hr 26 min 39 sec) 
Heartbeat CPU 0 instructions: 80000000 cycles: 41129200 heartbeat IPC: 1.19129 cumulative IPC: 1.21259 (Simulation time: 0 hr 29 min 39 sec) 
Heartbeat CPU 0 instructions: 90000000 cycles: 46859082 heartbeat IPC: 1.74524 cumulative IPC: 1.31275 (Simulation time: 0 hr 31 min 59 sec) 
Heartbeat CPU 0 instructions: 100000002 cycles: 52731281 heartbeat IPC: 1.70294 cumulative IPC: 1.3758 (Simulation time: 0 hr 33 min 44 sec) 
Finished CPU 0 instructions: 50000001 cycles: 36342562 cumulative IPC: 1.3758 (Simulation time: 0 hr 33 min 44 sec) 

ChampSim completed all CPUs

Region of Interest Statistics

CPU 0 cumulative IPC: 1.3758 instructions: 50000001 cycles: 36342562
L1D TOTAL     ACCESS:   20669221  HIT:   20254125  MISS:     415096
L1D LOAD      ACCESS:    7164427  HIT:    6950681  MISS:     213746
L1D RFO       ACCESS:    6541979  HIT:    6523481  MISS:      18498
L1D PREFETCH  ACCESS:    6962815  HIT:    6779963  MISS:     182852
L1D WRITEBACK ACCESS:          0  HIT:          0  MISS:          0
L1D PREFETCH  REQUESTED:    7179839  ISSUED:    7063302  USEFUL:      55165  USELESS:     127682
L1D AVERAGE MISS LATENCY: 58.06 cycles
L1I TOTAL     ACCESS:   36396118  HIT:   35667611  MISS:     728507
L1I LOAD      ACCESS:    9150577  HIT:    9106238  MISS:      44339
L1I RFO       ACCESS:          0  HIT:          0  MISS:          0
L1I PREFETCH  ACCESS:   27245541  HIT:   26561373  MISS:     684168
L1I WRITEBACK ACCESS:          0  HIT:          0  MISS:          0
L1I PREFETCH  REQUESTED:   33477797  ISSUED:   33477797  USEFUL:     410503  USELESS:     273680
L1I AVERAGE MISS LATENCY: 16.8015 cycles
L2C TOTAL     ACCESS:    1609697  HIT:    1442037  MISS:     167660
L2C LOAD      ACCESS:     238877  HIT:     157507  MISS:      81370
L2C RFO       ACCESS:      18258  HIT:      12743  MISS:       5515
L2C PREFETCH  ACCESS:    1273610  HIT:    1193204  MISS:      80406
L2C WRITEBACK ACCESS:      78952  HIT:      78583  MISS:        369
L2C PREFETCH  REQUESTED:    1123059  ISSUED:    1123006  USEFUL:       6324  USELESS:      74015
L2C AVERAGE MISS LATENCY: 118.133 cycles
LLC TOTAL     ACCESS:     423662  HIT:     281065  MISS:     142597
LLC LOAD      ACCESS:      81362  HIT:      32308  MISS:      49054
LLC RFO       ACCESS:       5515  HIT:       2495  MISS:       3020
LLC PREFETCH  ACCESS:     311213  HIT:     221198  MISS:      90015
LLC WRITEBACK ACCESS:      25572  HIT:      25064  MISS:        508
LLC PREFETCH  REQUESTED:          0  ISSUED:          0  USEFUL:      15325  USELESS:      74707
LLC AVERAGE MISS LATENCY: 159.175 cycles
Major fault: 0 Minor fault: 6366
CPU 0 L1I EPI prefetcher final stats
CPU 0 L1D next line prefetcher final stats

DRAM Statistics
 CHANNEL 0
 RQ ROW_BUFFER_HIT:      32341  ROW_BUFFER_MISS:     109746
 DBUS_CONGESTED:      58596
 WQ ROW_BUFFER_HIT:       4192  ROW_BUFFER_MISS:      13149  FULL:          0

 AVG_CONGESTED_CYCLE: 4

CPU 0 Branch Prediction Accuracy: 98.7418% MPKI: 2.47758 Average ROB Occupancy at Mispredict: 80.2412

Branch types
NOT_BRANCH: 40154100 80.3082%
BRANCH_DIRECT_JUMP: 817094 1.63419%
BRANCH_INDIRECT: 303787 0.607574%
BRANCH_CONDITIONAL: 7492103 14.9842%
BRANCH_DIRECT_CALL: 471777 0.943554%
BRANCH_INDIRECT_CALL: 144546 0.289092%
BRANCH_RETURN: 616324 1.23265%
BRANCH_OTHER: 0 0%

