Initialize SIGNATURE TABLE
ST_SET: 1
ST_WAY: 256
ST_TAG_BIT: 16
ST_TAG_MASK: ffff

Initialize PATTERN TABLE
PT_SET: 512
PT_WAY: 4
SIG_DELTA_BIT: 7
C_SIG_BIT: 4
C_DELTA_BIT: 4

Initialize PREFETCH FILTER
FILTER_SET: 1024

*** ChampSim Multicore Out-of-Order Simulator ***

Warmup Instructions: 50000000
Simulation Instructions: 50000000
Number of CPUs: 1
LLC sets: 2048
LLC ways: 16
Off-chip DRAM Size: 4096 MB Channels: 1 Width: 64-bit Data Rate: 3200 MT/s

CPU 0 runs /home/ykhodke/ChampSim/dpc3_traces/spec_x264_001.champsimtrace.xz
LHT KB: 126.25
SCC KB: 1.56
Total KB: 127.81
CPU 0 L1D next line prefetcher
Heartbeat CPU 0 instructions: 10000002 cycles: 3060196 heartbeat IPC: 3.26777 cumulative IPC: 3.26777 (Simulation time: 0 hr 1 min 54 sec) 
Heartbeat CPU 0 instructions: 20000002 cycles: 6110617 heartbeat IPC: 3.27824 cumulative IPC: 3.27299 (Simulation time: 0 hr 3 min 39 sec) 
Heartbeat CPU 0 instructions: 30000002 cycles: 9146471 heartbeat IPC: 3.29397 cumulative IPC: 3.27995 (Simulation time: 0 hr 5 min 24 sec) 
Heartbeat CPU 0 instructions: 40000000 cycles: 12191189 heartbeat IPC: 3.28438 cumulative IPC: 3.28106 (Simulation time: 0 hr 7 min 6 sec) 
Heartbeat CPU 0 instructions: 50000000 cycles: 15234335 heartbeat IPC: 3.28607 cumulative IPC: 3.28206 (Simulation time: 0 hr 8 min 49 sec) 

Warmup complete CPU 0 instructions: 50000004 cycles: 15234336 (Simulation time: 0 hr 8 min 49 sec) 

Heartbeat CPU 0 instructions: 60000001 cycles: 21173215 heartbeat IPC: 1.68382 cumulative IPC: 1.68382 (Simulation time: 0 hr 10 min 3 sec) 
Heartbeat CPU 0 instructions: 70000000 cycles: 27090416 heartbeat IPC: 1.68999 cumulative IPC: 1.6869 (Simulation time: 0 hr 11 min 23 sec) 
Heartbeat CPU 0 instructions: 80000003 cycles: 33157960 heartbeat IPC: 1.64811 cumulative IPC: 1.67377 (Simulation time: 0 hr 12 min 35 sec) 
Heartbeat CPU 0 instructions: 90000002 cycles: 39205276 heartbeat IPC: 1.65363 cumulative IPC: 1.66869 (Simulation time: 0 hr 13 min 48 sec) 
Heartbeat CPU 0 instructions: 100000002 cycles: 45112541 heartbeat IPC: 1.69283 cumulative IPC: 1.67346 (Simulation time: 0 hr 15 min 2 sec) 
Finished CPU 0 instructions: 50000002 cycles: 29878206 cumulative IPC: 1.67346 (Simulation time: 0 hr 15 min 2 sec) 

ChampSim completed all CPUs

Region of Interest Statistics

CPU 0 cumulative IPC: 1.67346 instructions: 50000002 cycles: 29878206
L1D TOTAL     ACCESS:   12969970  HIT:   12808897  MISS:     161073
L1D LOAD      ACCESS:    5099017  HIT:    5043872  MISS:      55145
L1D RFO       ACCESS:    2880092  HIT:    2845829  MISS:      34263
L1D PREFETCH  ACCESS:    4990861  HIT:    4919196  MISS:      71665
L1D WRITEBACK ACCESS:          0  HIT:          0  MISS:          0
L1D PREFETCH  REQUESTED:    5115709  ISSUED:    5048317  USEFUL:      25797  USELESS:      45677
L1D AVERAGE MISS LATENCY: 41.7345 cycles
L1I TOTAL     ACCESS:   11399948  HIT:   11040408  MISS:     359540
L1I LOAD      ACCESS:    8038841  HIT:    8025977  MISS:      12864
L1I RFO       ACCESS:          0  HIT:          0  MISS:          0
L1I PREFETCH  ACCESS:    3361107  HIT:    3014431  MISS:     346676
L1I WRITEBACK ACCESS:          0  HIT:          0  MISS:          0
L1I PREFETCH  REQUESTED:    3502600  ISSUED:    3502600  USEFUL:     262729  USELESS:      83942
L1I AVERAGE MISS LATENCY: 14.3006 cycles
L2C TOTAL     ACCESS:     765152  HIT:     726533  MISS:      38619
L2C LOAD      ACCESS:      56861  HIT:      51551  MISS:       5310
L2C RFO       ACCESS:      34022  HIT:      21967  MISS:      12055
L2C PREFETCH  ACCESS:     631202  HIT:     610070  MISS:      21132
L2C WRITEBACK ACCESS:      43067  HIT:      42945  MISS:        122
L2C PREFETCH  REQUESTED:     480143  ISSUED:     479201  USEFUL:       8956  USELESS:      12495
L2C AVERAGE MISS LATENCY: 112.219 cycles
LLC TOTAL     ACCESS:     101142  HIT:      72035  MISS:      29107
LLC LOAD      ACCESS:       5310  HIT:       3073  MISS:       2237
LLC RFO       ACCESS:      12054  HIT:        420  MISS:      11634
LLC PREFETCH  ACCESS:      70155  HIT:      54983  MISS:      15172
LLC WRITEBACK ACCESS:      13623  HIT:      13559  MISS:         64
LLC PREFETCH  REQUESTED:          0  ISSUED:          0  USEFUL:       1594  USELESS:      14015
LLC AVERAGE MISS LATENCY: 166.164 cycles
Major fault: 0 Minor fault: 1288
CPU 0 L1D next line prefetcher final stats

DRAM Statistics
 CHANNEL 0
 RQ ROW_BUFFER_HIT:       8715  ROW_BUFFER_MISS:      20328
 DBUS_CONGESTED:      12723
 WQ ROW_BUFFER_HIT:       2849  ROW_BUFFER_MISS:      10051  FULL:          0

 AVG_CONGESTED_CYCLE: 6

CPU 0 Branch Prediction Accuracy: 97.1633% MPKI: 1.73704 Average ROB Occupancy at Mispredict: 42.5498

Branch types
NOT_BRANCH: 46937921 93.8758%
BRANCH_DIRECT_JUMP: 170816 0.341632%
BRANCH_INDIRECT: 0 0%
BRANCH_CONDITIONAL: 2532774 5.06555%
BRANCH_DIRECT_CALL: 114227 0.228454%
BRANCH_INDIRECT_CALL: 64863 0.129726%
BRANCH_RETURN: 179089 0.358178%
BRANCH_OTHER: 0 0%

