Initialize SIGNATURE TABLE
ST_SET: 1
ST_WAY: 256
ST_TAG_BIT: 16
ST_TAG_MASK: ffff

Initialize PATTERN TABLE
PT_SET: 512
PT_WAY: 4
SIG_DELTA_BIT: 7
C_SIG_BIT: 4
C_DELTA_BIT: 4

Initialize PREFETCH FILTER
FILTER_SET: 1024

*** ChampSim Multicore Out-of-Order Simulator ***

Warmup Instructions: 50000000
Simulation Instructions: 50000000
Number of CPUs: 1
LLC sets: 2048
LLC ways: 16
Off-chip DRAM Size: 4096 MB Channels: 1 Width: 64-bit Data Rate: 3200 MT/s

CPU 0 runs /home/ykhodke/ChampSim/dpc3_traces/spec_gobmk_001.champsimtrace.xz
LHT KB: 126.25
SCC KB: 1.56
Total KB: 127.81
CPU 0 L1D next line prefetcher
Heartbeat CPU 0 instructions: 10000003 cycles: 3507171 heartbeat IPC: 2.8513 cumulative IPC: 2.8513 (Simulation time: 0 hr 2 min 29 sec) 
Heartbeat CPU 0 instructions: 20000002 cycles: 6987791 heartbeat IPC: 2.87305 cumulative IPC: 2.86214 (Simulation time: 0 hr 4 min 54 sec) 
Heartbeat CPU 0 instructions: 30000002 cycles: 10507068 heartbeat IPC: 2.84149 cumulative IPC: 2.85522 (Simulation time: 0 hr 7 min 19 sec) 
Heartbeat CPU 0 instructions: 40000001 cycles: 14026269 heartbeat IPC: 2.84155 cumulative IPC: 2.85179 (Simulation time: 0 hr 9 min 46 sec) 
Heartbeat CPU 0 instructions: 50000001 cycles: 17566538 heartbeat IPC: 2.82464 cumulative IPC: 2.84632 (Simulation time: 0 hr 12 min 44 sec) 

Warmup complete CPU 0 instructions: 50000001 cycles: 17566538 (Simulation time: 0 hr 12 min 44 sec) 

Heartbeat CPU 0 instructions: 60000000 cycles: 26330393 heartbeat IPC: 1.14105 cumulative IPC: 1.14105 (Simulation time: 0 hr 15 min 1 sec) 
Heartbeat CPU 0 instructions: 70000002 cycles: 34746468 heartbeat IPC: 1.1882 cumulative IPC: 1.16415 (Simulation time: 0 hr 17 min 9 sec) 
Heartbeat CPU 0 instructions: 80000003 cycles: 43578650 heartbeat IPC: 1.13222 cumulative IPC: 1.15331 (Simulation time: 0 hr 19 min 11 sec) 
Heartbeat CPU 0 instructions: 90000001 cycles: 52085932 heartbeat IPC: 1.17546 cumulative IPC: 1.15877 (Simulation time: 0 hr 21 min 10 sec) 
Heartbeat CPU 0 instructions: 100000003 cycles: 60908497 heartbeat IPC: 1.13346 cumulative IPC: 1.15362 (Simulation time: 0 hr 23 min 15 sec) 
Finished CPU 0 instructions: 50000002 cycles: 43341959 cumulative IPC: 1.15362 (Simulation time: 0 hr 23 min 15 sec) 

ChampSim completed all CPUs

Region of Interest Statistics

CPU 0 cumulative IPC: 1.15362 instructions: 50000002 cycles: 43341959
L1D TOTAL     ACCESS:   17993479  HIT:   17613938  MISS:     379541
L1D LOAD      ACCESS:    7215289  HIT:    7079782  MISS:     135507
L1D RFO       ACCESS:    3702407  HIT:    3597830  MISS:     104577
L1D PREFETCH  ACCESS:    7075783  HIT:    6936326  MISS:     139457
L1D WRITEBACK ACCESS:          0  HIT:          0  MISS:          0
L1D PREFETCH  REQUESTED:    7220714  ISSUED:    7137942  USEFUL:      44753  USELESS:      94709
L1D AVERAGE MISS LATENCY: 33.0487 cycles
L1I TOTAL     ACCESS:   19267540  HIT:   18108790  MISS:    1158750
L1I LOAD      ACCESS:    8943278  HIT:    8829374  MISS:     113904
L1I RFO       ACCESS:          0  HIT:          0  MISS:          0
L1I PREFETCH  ACCESS:   10324262  HIT:    9279416  MISS:    1044846
L1I WRITEBACK ACCESS:          0  HIT:          0  MISS:          0
L1I PREFETCH  REQUESTED:   11495842  ISSUED:   11495842  USEFUL:     574630  USELESS:     470177
L1I AVERAGE MISS LATENCY: 13.6806 cycles
L2C TOTAL     ACCESS:    2169633  HIT:    2043384  MISS:     126249
L2C LOAD      ACCESS:     128030  HIT:      93759  MISS:      34271
L2C RFO       ACCESS:     104228  HIT:      70245  MISS:      33983
L2C PREFETCH  ACCESS:    1798076  HIT:    1740145  MISS:      57931
L2C WRITEBACK ACCESS:     139299  HIT:     139235  MISS:         64
L2C PREFETCH  REQUESTED:     887376  ISSUED:     887318  USEFUL:       3976  USELESS:      54291
L2C AVERAGE MISS LATENCY: 63.0496 cycles
LLC TOTAL     ACCESS:     267825  HIT:     235104  MISS:      32721
LLC LOAD      ACCESS:      34269  HIT:      26254  MISS:       8015
LLC RFO       ACCESS:      33982  HIT:      28764  MISS:       5218
LLC PREFETCH  ACCESS:     154836  HIT:     135600  MISS:      19236
LLC WRITEBACK ACCESS:      44738  HIT:      44486  MISS:        252
LLC PREFETCH  REQUESTED:          0  ISSUED:          0  USEFUL:       1226  USELESS:      16954
LLC AVERAGE MISS LATENCY: 179.153 cycles
Major fault: 0 Minor fault: 4166
CPU 0 L1D next line prefetcher final stats

DRAM Statistics
 CHANNEL 0
 RQ ROW_BUFFER_HIT:       3637  ROW_BUFFER_MISS:      28832
 DBUS_CONGESTED:      17744
 WQ ROW_BUFFER_HIT:       1047  ROW_BUFFER_MISS:      13569  FULL:          0

 AVG_CONGESTED_CYCLE: 4

CPU 0 Branch Prediction Accuracy: 94.7729% MPKI: 9.72684 Average ROB Occupancy at Mispredict: 54.0242

Branch types
NOT_BRANCH: 40695383 81.3908%
BRANCH_DIRECT_JUMP: 422107 0.844214%
BRANCH_INDIRECT: 65 0.00013%
BRANCH_CONDITIONAL: 8105005 16.21%
BRANCH_DIRECT_CALL: 374913 0.749826%
BRANCH_INDIRECT_CALL: 13657 0.027314%
BRANCH_RETURN: 388556 0.777112%
BRANCH_OTHER: 0 0%

