Initialize SIGNATURE TABLE
ST_SET: 1
ST_WAY: 256
ST_TAG_BIT: 16
ST_TAG_MASK: ffff

Initialize PATTERN TABLE
PT_SET: 512
PT_WAY: 4
SIG_DELTA_BIT: 7
C_SIG_BIT: 4
C_DELTA_BIT: 4

Initialize PREFETCH FILTER
FILTER_SET: 1024

*** ChampSim Multicore Out-of-Order Simulator ***

Warmup Instructions: 50000000
Simulation Instructions: 50000000
Number of CPUs: 1
LLC sets: 2048
LLC ways: 16
Off-chip DRAM Size: 4096 MB Channels: 1 Width: 64-bit Data Rate: 3200 MT/s

CPU 0 runs /home/ykhodke/ChampSim/dpc3_traces/spec_x264_001.champsimtrace.xz
LHT KB: 126.25
SCC KB: 1.56
Total KB: 127.81
CPU 0 L1D next line prefetcher
Heartbeat CPU 0 instructions: 10000002 cycles: 3060216 heartbeat IPC: 3.26774 cumulative IPC: 3.26774 (Simulation time: 0 hr 1 min 53 sec) 
Heartbeat CPU 0 instructions: 20000002 cycles: 6110588 heartbeat IPC: 3.27829 cumulative IPC: 3.27301 (Simulation time: 0 hr 3 min 43 sec) 
Heartbeat CPU 0 instructions: 30000002 cycles: 9146352 heartbeat IPC: 3.29406 cumulative IPC: 3.28 (Simulation time: 0 hr 5 min 55 sec) 
Heartbeat CPU 0 instructions: 40000000 cycles: 12191141 heartbeat IPC: 3.2843 cumulative IPC: 3.28107 (Simulation time: 0 hr 7 min 55 sec) 
Heartbeat CPU 0 instructions: 50000000 cycles: 15234278 heartbeat IPC: 3.28608 cumulative IPC: 3.28207 (Simulation time: 0 hr 9 min 46 sec) 

Warmup complete CPU 0 instructions: 50000004 cycles: 15234279 (Simulation time: 0 hr 9 min 46 sec) 

Heartbeat CPU 0 instructions: 60000001 cycles: 21173357 heartbeat IPC: 1.68376 cumulative IPC: 1.68376 (Simulation time: 0 hr 11 min 10 sec) 
Heartbeat CPU 0 instructions: 70000000 cycles: 27090540 heartbeat IPC: 1.68999 cumulative IPC: 1.68687 (Simulation time: 0 hr 12 min 25 sec) 
Heartbeat CPU 0 instructions: 80000003 cycles: 33156345 heartbeat IPC: 1.64859 cumulative IPC: 1.67391 (Simulation time: 0 hr 13 min 43 sec) 
Heartbeat CPU 0 instructions: 90000002 cycles: 39202594 heartbeat IPC: 1.65392 cumulative IPC: 1.66887 (Simulation time: 0 hr 15 min 2 sec) 
Heartbeat CPU 0 instructions: 100000002 cycles: 45108881 heartbeat IPC: 1.69311 cumulative IPC: 1.67366 (Simulation time: 0 hr 16 min 25 sec) 
Finished CPU 0 instructions: 50000002 cycles: 29874603 cumulative IPC: 1.67366 (Simulation time: 0 hr 16 min 25 sec) 

ChampSim completed all CPUs

Region of Interest Statistics

CPU 0 cumulative IPC: 1.67366 instructions: 50000002 cycles: 29874603
L1D TOTAL     ACCESS:   12968992  HIT:   12807941  MISS:     161051
L1D LOAD      ACCESS:    5098769  HIT:    5043600  MISS:      55169
L1D RFO       ACCESS:    2880213  HIT:    2845951  MISS:      34262
L1D PREFETCH  ACCESS:    4990010  HIT:    4918390  MISS:      71620
L1D WRITEBACK ACCESS:          0  HIT:          0  MISS:          0
L1D PREFETCH  REQUESTED:    5115507  ISSUED:    5048075  USEFUL:      25756  USELESS:      45673
L1D AVERAGE MISS LATENCY: 41.5827 cycles
L1I TOTAL     ACCESS:   11303436  HIT:   10940938  MISS:     362498
L1I LOAD      ACCESS:    8037599  HIT:    8024620  MISS:      12979
L1I RFO       ACCESS:          0  HIT:          0  MISS:          0
L1I PREFETCH  ACCESS:    3265837  HIT:    2916318  MISS:     349519
L1I WRITEBACK ACCESS:          0  HIT:          0  MISS:          0
L1I PREFETCH  REQUESTED:    3398648  ISSUED:    3398648  USEFUL:     267964  USELESS:      81554
L1I AVERAGE MISS LATENCY: 14.2762 cycles
L2C TOTAL     ACCESS:     769980  HIT:     731370  MISS:      38610
L2C LOAD      ACCESS:      57028  HIT:      51721  MISS:       5307
L2C RFO       ACCESS:      34019  HIT:      21956  MISS:      12063
L2C PREFETCH  ACCESS:     635868  HIT:     614744  MISS:      21124
L2C WRITEBACK ACCESS:      43065  HIT:      42949  MISS:        116
L2C PREFETCH  REQUESTED:     479625  ISSUED:     478667  USEFUL:       8960  USELESS:      12476
L2C AVERAGE MISS LATENCY: 111.457 cycles
LLC TOTAL     ACCESS:     100304  HIT:      71294  MISS:      29010
LLC LOAD      ACCESS:       5307  HIT:       3065  MISS:       2242
LLC RFO       ACCESS:      12062  HIT:        443  MISS:      11619
LLC PREFETCH  ACCESS:      69277  HIT:      54198  MISS:      15079
LLC WRITEBACK ACCESS:      13658  HIT:      13588  MISS:         70
LLC PREFETCH  REQUESTED:          0  ISSUED:          0  USEFUL:       1597  USELESS:      13947
LLC AVERAGE MISS LATENCY: 165.467 cycles
Major fault: 0 Minor fault: 1288
CPU 0 L1D next line prefetcher final stats

DRAM Statistics
 CHANNEL 0
 RQ ROW_BUFFER_HIT:       8792  ROW_BUFFER_MISS:      20148
 DBUS_CONGESTED:      12684
 WQ ROW_BUFFER_HIT:       2947  ROW_BUFFER_MISS:       9902  FULL:          0

 AVG_CONGESTED_CYCLE: 6

CPU 0 Branch Prediction Accuracy: 97.1633% MPKI: 1.73704 Average ROB Occupancy at Mispredict: 42.5187

Branch types
NOT_BRANCH: 46937921 93.8758%
BRANCH_DIRECT_JUMP: 170816 0.341632%
BRANCH_INDIRECT: 0 0%
BRANCH_CONDITIONAL: 2532774 5.06555%
BRANCH_DIRECT_CALL: 114227 0.228454%
BRANCH_INDIRECT_CALL: 64863 0.129726%
BRANCH_RETURN: 179089 0.358178%
BRANCH_OTHER: 0 0%

