Initialize SIGNATURE TABLE
ST_SET: 1
ST_WAY: 256
ST_TAG_BIT: 16
ST_TAG_MASK: ffff

Initialize PATTERN TABLE
PT_SET: 512
PT_WAY: 4
SIG_DELTA_BIT: 7
C_SIG_BIT: 4
C_DELTA_BIT: 4

Initialize PREFETCH FILTER
FILTER_SET: 1024

*** ChampSim Multicore Out-of-Order Simulator ***

Warmup Instructions: 50000000
Simulation Instructions: 50000000
Number of CPUs: 1
LLC sets: 2048
LLC ways: 16
Off-chip DRAM Size: 4096 MB Channels: 1 Width: 64-bit Data Rate: 3200 MT/s

CPU 0 runs /home/ykhodke/ChampSim/dpc3_traces/spec_x264_001.champsimtrace.xz
L1I D-JOLT instruction prefetcher has been constructed!
CPU 0 L1D next line prefetcher
Heartbeat CPU 0 instructions: 10000002 cycles: 3059640 heartbeat IPC: 3.26836 cumulative IPC: 3.26836 (Simulation time: 0 hr 1 min 54 sec) 
Heartbeat CPU 0 instructions: 20000002 cycles: 6109423 heartbeat IPC: 3.27892 cumulative IPC: 3.27363 (Simulation time: 0 hr 3 min 45 sec) 
Heartbeat CPU 0 instructions: 30000002 cycles: 9144752 heartbeat IPC: 3.29454 cumulative IPC: 3.28057 (Simulation time: 0 hr 5 min 41 sec) 
Heartbeat CPU 0 instructions: 40000000 cycles: 12188931 heartbeat IPC: 3.28496 cumulative IPC: 3.28167 (Simulation time: 0 hr 7 min 32 sec) 
Heartbeat CPU 0 instructions: 50000000 cycles: 15231789 heartbeat IPC: 3.28638 cumulative IPC: 3.28261 (Simulation time: 0 hr 9 min 25 sec) 

Warmup complete CPU 0 instructions: 50000004 cycles: 15231790 (Simulation time: 0 hr 9 min 25 sec) 

Heartbeat CPU 0 instructions: 60000001 cycles: 21164137 heartbeat IPC: 1.68567 cumulative IPC: 1.68567 (Simulation time: 0 hr 10 min 51 sec) 
Heartbeat CPU 0 instructions: 70000000 cycles: 27076439 heartbeat IPC: 1.69139 cumulative IPC: 1.68853 (Simulation time: 0 hr 12 min 15 sec) 
Heartbeat CPU 0 instructions: 80000003 cycles: 33134888 heartbeat IPC: 1.65059 cumulative IPC: 1.67569 (Simulation time: 0 hr 13 min 44 sec) 
Heartbeat CPU 0 instructions: 90000002 cycles: 39173067 heartbeat IPC: 1.65613 cumulative IPC: 1.67075 (Simulation time: 0 hr 15 min 5 sec) 
Heartbeat CPU 0 instructions: 100000002 cycles: 45071827 heartbeat IPC: 1.69527 cumulative IPC: 1.6756 (Simulation time: 0 hr 16 min 26 sec) 
Finished CPU 0 instructions: 50000002 cycles: 29840038 cumulative IPC: 1.6756 (Simulation time: 0 hr 16 min 26 sec) 

ChampSim completed all CPUs

Region of Interest Statistics

CPU 0 cumulative IPC: 1.6756 instructions: 50000002 cycles: 29840038
L1D TOTAL     ACCESS:   12970368  HIT:   12809352  MISS:     161016
L1D LOAD      ACCESS:    5096922  HIT:    5041829  MISS:      55093
L1D RFO       ACCESS:    2880837  HIT:    2846551  MISS:      34286
L1D PREFETCH  ACCESS:    4992609  HIT:    4920972  MISS:      71637
L1D WRITEBACK ACCESS:          0  HIT:          0  MISS:          0
L1D PREFETCH  REQUESTED:    5113634  ISSUED:    5046179  USEFUL:      25781  USELESS:      45665
L1D AVERAGE MISS LATENCY: 40.5774 cycles
L1I TOTAL     ACCESS:    9392635  HIT:    8992505  MISS:     400130
L1I LOAD      ACCESS:    8037020  HIT:    8029406  MISS:       7614
L1I RFO       ACCESS:          0  HIT:          0  MISS:          0
L1I PREFETCH  ACCESS:    1355615  HIT:     963099  MISS:     392516
L1I WRITEBACK ACCESS:          0  HIT:          0  MISS:          0
L1I PREFETCH  REQUESTED:    1439987  ISSUED:    1421091  USEFUL:     301338  USELESS:      91219
L1I AVERAGE MISS LATENCY: 15 cycles
L2C TOTAL     ACCESS:     862699  HIT:     824196  MISS:      38503
L2C LOAD      ACCESS:      60478  HIT:      55180  MISS:       5298
L2C RFO       ACCESS:      34095  HIT:      22029  MISS:      12066
L2C PREFETCH  ACCESS:     725059  HIT:     703995  MISS:      21064
L2C WRITEBACK ACCESS:      43067  HIT:      42992  MISS:         75
L2C PREFETCH  REQUESTED:     671141  ISSUED:     666548  USEFUL:       8940  USELESS:      12364
L2C AVERAGE MISS LATENCY: 107.173 cycles
LLC TOTAL     ACCESS:     127172  HIT:      98137  MISS:      29035
LLC LOAD      ACCESS:       5298  HIT:       3190  MISS:       2108
LLC RFO       ACCESS:      12066  HIT:        455  MISS:      11611
LLC PREFETCH  ACCESS:      96207  HIT:      80957  MISS:      15250
LLC WRITEBACK ACCESS:      13601  HIT:      13535  MISS:         66
LLC PREFETCH  REQUESTED:          0  ISSUED:          0  USEFUL:       1764  USELESS:      13851
LLC AVERAGE MISS LATENCY: 166.411 cycles
Major fault: 0 Minor fault: 1285
CPU 0 L1D next line prefetcher final stats

DRAM Statistics
 CHANNEL 0
 RQ ROW_BUFFER_HIT:       8683  ROW_BUFFER_MISS:      20286
 DBUS_CONGESTED:      12242
 WQ ROW_BUFFER_HIT:       2951  ROW_BUFFER_MISS:       9817  FULL:          0

 AVG_CONGESTED_CYCLE: 6

CPU 0 Branch Prediction Accuracy: 97.1633% MPKI: 1.73704 Average ROB Occupancy at Mispredict: 43.0652

Branch types
NOT_BRANCH: 46937921 93.8758%
BRANCH_DIRECT_JUMP: 170816 0.341632%
BRANCH_INDIRECT: 0 0%
BRANCH_CONDITIONAL: 2532774 5.06555%
BRANCH_DIRECT_CALL: 114227 0.228454%
BRANCH_INDIRECT_CALL: 64863 0.129726%
BRANCH_RETURN: 179089 0.358178%
BRANCH_OTHER: 0 0%

