Initialize SIGNATURE TABLE
ST_SET: 1
ST_WAY: 256
ST_TAG_BIT: 16
ST_TAG_MASK: ffff

Initialize PATTERN TABLE
PT_SET: 512
PT_WAY: 4
SIG_DELTA_BIT: 7
C_SIG_BIT: 4
C_DELTA_BIT: 4

Initialize PREFETCH FILTER
FILTER_SET: 1024

*** ChampSim Multicore Out-of-Order Simulator ***

Warmup Instructions: 50000000
Simulation Instructions: 50000000
Number of CPUs: 1
LLC sets: 2048
LLC ways: 16
Off-chip DRAM Size: 4096 MB Channels: 1 Width: 64-bit Data Rate: 3200 MT/s

CPU 0 runs /home/ykhodke/ChampSim/dpc3_traces/spec_gcc_002.champsimtrace.xz
CPU 0 EPI prefetcher
CPU 0 L1D next line prefetcher
Heartbeat CPU 0 instructions: 10000002 cycles: 3548229 heartbeat IPC: 2.81831 cumulative IPC: 2.81831 (Simulation time: 0 hr 3 min 20 sec) 
Heartbeat CPU 0 instructions: 20000000 cycles: 7126024 heartbeat IPC: 2.79502 cumulative IPC: 2.80661 (Simulation time: 0 hr 6 min 31 sec) 
Heartbeat CPU 0 instructions: 30000000 cycles: 10688343 heartbeat IPC: 2.80716 cumulative IPC: 2.8068 (Simulation time: 0 hr 10 min 0 sec) 
Heartbeat CPU 0 instructions: 40000000 cycles: 14240549 heartbeat IPC: 2.81515 cumulative IPC: 2.80888 (Simulation time: 0 hr 13 min 32 sec) 
Heartbeat CPU 0 instructions: 50000002 cycles: 17735453 heartbeat IPC: 2.86131 cumulative IPC: 2.81921 (Simulation time: 0 hr 16 min 57 sec) 

Warmup complete CPU 0 instructions: 50000002 cycles: 17735453 (Simulation time: 0 hr 16 min 57 sec) 

Heartbeat CPU 0 instructions: 60000001 cycles: 57959144 heartbeat IPC: 0.24861 cumulative IPC: 0.24861 (Simulation time: 0 hr 23 min 22 sec) 
Heartbeat CPU 0 instructions: 70000001 cycles: 89854058 heartbeat IPC: 0.31353 cumulative IPC: 0.277321 (Simulation time: 0 hr 28 min 43 sec) 
Heartbeat CPU 0 instructions: 80000002 cycles: 138864507 heartbeat IPC: 0.204038 cumulative IPC: 0.24767 (Simulation time: 0 hr 33 min 53 sec) 
Heartbeat CPU 0 instructions: 90000001 cycles: 183442115 heartbeat IPC: 0.224328 cumulative IPC: 0.24139 (Simulation time: 0 hr 35 min 30 sec) 
Heartbeat CPU 0 instructions: 100000000 cycles: 215494392 heartbeat IPC: 0.31199 cumulative IPC: 0.252833 (Simulation time: 0 hr 36 min 3 sec) 
Finished CPU 0 instructions: 50000002 cycles: 197758947 cumulative IPC: 0.252833 (Simulation time: 0 hr 36 min 3 sec) 

ChampSim completed all CPUs

Region of Interest Statistics

CPU 0 cumulative IPC: 0.252833 instructions: 50000002 cycles: 197758947
L1D TOTAL     ACCESS:   18164117  HIT:   12930658  MISS:    5233459
L1D LOAD      ACCESS:    6330772  HIT:    5272544  MISS:    1058228
L1D RFO       ACCESS:    7018670  HIT:    3418021  MISS:    3600649
L1D PREFETCH  ACCESS:    4814675  HIT:    4240093  MISS:     574582
L1D WRITEBACK ACCESS:          0  HIT:          0  MISS:          0
L1D PREFETCH  REQUESTED:    6350784  ISSUED:    6279707  USEFUL:     414940  USELESS:     159858
L1D AVERAGE MISS LATENCY: 335.672 cycles
L1I TOTAL     ACCESS:   31723436  HIT:   30662493  MISS:    1060943
L1I LOAD      ACCESS:   12103242  HIT:   12046838  MISS:      56404
L1I RFO       ACCESS:          0  HIT:          0  MISS:          0
L1I PREFETCH  ACCESS:   19620194  HIT:   18615655  MISS:    1004539
L1I WRITEBACK ACCESS:          0  HIT:          0  MISS:          0
L1I PREFETCH  REQUESTED:   27922556  ISSUED:   27922556  USEFUL:     632614  USELESS:     371931
L1I AVERAGE MISS LATENCY: 72.5452 cycles
L2C TOTAL     ACCESS:   10443442  HIT:    5121168  MISS:    5322274
L2C LOAD      ACCESS:     289648  HIT:     123852  MISS:     165796
L2C RFO       ACCESS:    3599043  HIT:      12323  MISS:    3586720
L2C PREFETCH  ACCESS:    2829265  HIT:    1259659  MISS:    1569606
L2C WRITEBACK ACCESS:    3725486  HIT:    3725334  MISS:        152
L2C PREFETCH  REQUESTED:    3290747  ISSUED:    3290424  USEFUL:      29601  USELESS:    1540117
L2C AVERAGE MISS LATENCY: 347.754 cycles
LLC TOTAL     ACCESS:   10006978  HIT:    6126420  MISS:    3880558
LLC LOAD      ACCESS:     165607  HIT:      97817  MISS:      67790
LLC RFO       ACCESS:    3586721  HIT:     588770  MISS:    2997951
LLC PREFETCH  ACCESS:    2587925  HIT:    1773108  MISS:     814817
LLC WRITEBACK ACCESS:    3666725  HIT:    3666725  MISS:          0
LLC PREFETCH  REQUESTED:          0  ISSUED:          0  USEFUL:     142786  USELESS:     667043
LLC AVERAGE MISS LATENCY: 459.731 cycles
Major fault: 0 Minor fault: 4158
CPU 0 L1I EPI prefetcher final stats
CPU 0 L1D next line prefetcher final stats

DRAM Statistics
 CHANNEL 0
 RQ ROW_BUFFER_HIT:    1009235  ROW_BUFFER_MISS:    2868666
 DBUS_CONGESTED:    5554323
 WQ ROW_BUFFER_HIT:     943791  ROW_BUFFER_MISS:    2229746  FULL:          0

 AVG_CONGESTED_CYCLE: 6

CPU 0 Branch Prediction Accuracy: 99.5987% MPKI: 0.82446 Average ROB Occupancy at Mispredict: 135.694

Branch types
NOT_BRANCH: 39726807 79.4536%
BRANCH_DIRECT_JUMP: 391439 0.782878%
BRANCH_INDIRECT: 62076 0.124152%
BRANCH_CONDITIONAL: 8421541 16.8431%
BRANCH_DIRECT_CALL: 672962 1.34592%
BRANCH_INDIRECT_CALL: 26115 0.05223%
BRANCH_RETURN: 699082 1.39816%
BRANCH_OTHER: 0 0%

