Initialize SIGNATURE TABLE
ST_SET: 1
ST_WAY: 256
ST_TAG_BIT: 16
ST_TAG_MASK: ffff

Initialize PATTERN TABLE
PT_SET: 512
PT_WAY: 4
SIG_DELTA_BIT: 7
C_SIG_BIT: 4
C_DELTA_BIT: 4

Initialize PREFETCH FILTER
FILTER_SET: 1024

*** ChampSim Multicore Out-of-Order Simulator ***

Warmup Instructions: 50000000
Simulation Instructions: 50000000
Number of CPUs: 1
LLC sets: 2048
LLC ways: 16
Off-chip DRAM Size: 4096 MB Channels: 1 Width: 64-bit Data Rate: 3200 MT/s

CPU 0 runs /home/ykhodke/ChampSim/dpc3_traces/spec_gobmk_002.champsimtrace.xz
LHT KB: 63.12
SCC KB: 1.56
Total KB: 64.69
CPU 0 L1D next line prefetcher
Heartbeat CPU 0 instructions: 10000001 cycles: 3287555 heartbeat IPC: 3.04177 cumulative IPC: 3.04177 (Simulation time: 0 hr 2 min 21 sec) 
Heartbeat CPU 0 instructions: 20000000 cycles: 6619159 heartbeat IPC: 3.00156 cumulative IPC: 3.02153 (Simulation time: 0 hr 4 min 38 sec) 
Heartbeat CPU 0 instructions: 30000000 cycles: 9957146 heartbeat IPC: 2.99582 cumulative IPC: 3.01291 (Simulation time: 0 hr 6 min 57 sec) 
Heartbeat CPU 0 instructions: 40000000 cycles: 13266553 heartbeat IPC: 3.02169 cumulative IPC: 3.0151 (Simulation time: 0 hr 9 min 20 sec) 
Heartbeat CPU 0 instructions: 50000003 cycles: 16530066 heartbeat IPC: 3.06418 cumulative IPC: 3.02479 (Simulation time: 0 hr 11 min 51 sec) 

Warmup complete CPU 0 instructions: 50000003 cycles: 16530066 (Simulation time: 0 hr 11 min 51 sec) 

Heartbeat CPU 0 instructions: 60000003 cycles: 23913461 heartbeat IPC: 1.35439 cumulative IPC: 1.35439 (Simulation time: 0 hr 14 min 3 sec) 
Heartbeat CPU 0 instructions: 70000003 cycles: 31251696 heartbeat IPC: 1.36273 cumulative IPC: 1.35855 (Simulation time: 0 hr 16 min 15 sec) 
Heartbeat CPU 0 instructions: 80000000 cycles: 38465124 heartbeat IPC: 1.3863 cumulative IPC: 1.36767 (Simulation time: 0 hr 18 min 15 sec) 
Heartbeat CPU 0 instructions: 90000002 cycles: 45964107 heartbeat IPC: 1.33351 cumulative IPC: 1.35897 (Simulation time: 0 hr 20 min 13 sec) 
Heartbeat CPU 0 instructions: 100000003 cycles: 53689407 heartbeat IPC: 1.29445 cumulative IPC: 1.34556 (Simulation time: 0 hr 22 min 11 sec) 
Finished CPU 0 instructions: 50000000 cycles: 37159341 cumulative IPC: 1.34556 (Simulation time: 0 hr 22 min 11 sec) 

ChampSim completed all CPUs

Region of Interest Statistics

CPU 0 cumulative IPC: 1.34556 instructions: 50000000 cycles: 37159341
L1D TOTAL     ACCESS:   17627727  HIT:   17504605  MISS:     123122
L1D LOAD      ACCESS:    6659575  HIT:    6625301  MISS:      34274
L1D RFO       ACCESS:    4387478  HIT:    4344819  MISS:      42659
L1D PREFETCH  ACCESS:    6580674  HIT:    6534485  MISS:      46189
L1D WRITEBACK ACCESS:          0  HIT:          0  MISS:          0
L1D PREFETCH  REQUESTED:    6662077  ISSUED:    6594778  USEFUL:      17130  USELESS:      29240
L1D AVERAGE MISS LATENCY: 51.557 cycles
L1I TOTAL     ACCESS:   23508410  HIT:   21391223  MISS:    2117187
L1I LOAD      ACCESS:    8865713  HIT:    8738015  MISS:     127698
L1I RFO       ACCESS:          0  HIT:          0  MISS:          0
L1I PREFETCH  ACCESS:   14642697  HIT:   12653208  MISS:    1989489
L1I WRITEBACK ACCESS:          0  HIT:          0  MISS:          0
L1I PREFETCH  REQUESTED:   16323956  ISSUED:   16323956  USEFUL:     983806  USELESS:    1005673
L1I AVERAGE MISS LATENCY: 13.7322 cycles
L2C TOTAL     ACCESS:    3074303  HIT:    3034665  MISS:      39638
L2C LOAD      ACCESS:      56700  HIT:      43924  MISS:      12776
L2C RFO       ACCESS:      42511  HIT:      39445  MISS:       3066
L2C PREFETCH  ACCESS:    2900886  HIT:    2877286  MISS:      23600
L2C WRITEBACK ACCESS:      74206  HIT:      74010  MISS:        196
L2C PREFETCH  REQUESTED:    1212085  ISSUED:    1212083  USEFUL:       2419  USELESS:      21188
L2C AVERAGE MISS LATENCY: 125.975 cycles
LLC TOTAL     ACCESS:     110714  HIT:      80132  MISS:      30582
LLC LOAD      ACCESS:      12776  HIT:       4507  MISS:       8269
LLC RFO       ACCESS:       3066  HIT:       1432  MISS:       1634
LLC PREFETCH  ACCESS:      76297  HIT:      56158  MISS:      20139
LLC WRITEBACK ACCESS:      18575  HIT:      18035  MISS:        540
LLC PREFETCH  REQUESTED:          0  ISSUED:          0  USEFUL:       1538  USELESS:      18547
LLC AVERAGE MISS LATENCY: 184.115 cycles
Major fault: 0 Minor fault: 2787
CPU 0 L1D next line prefetcher final stats

DRAM Statistics
 CHANNEL 0
 RQ ROW_BUFFER_HIT:       2471  ROW_BUFFER_MISS:      27571
 DBUS_CONGESTED:      14562
 WQ ROW_BUFFER_HIT:        754  ROW_BUFFER_MISS:      12671  FULL:          0

 AVG_CONGESTED_CYCLE: 4

CPU 0 Branch Prediction Accuracy: 93.9974% MPKI: 10.2447 Average ROB Occupancy at Mispredict: 40.1515

Branch types
NOT_BRANCH: 41466058 82.9321%
BRANCH_DIRECT_JUMP: 464313 0.928626%
BRANCH_INDIRECT: 32 6.4e-05%
BRANCH_CONDITIONAL: 7069453 14.1389%
BRANCH_DIRECT_CALL: 499587 0.999174%
BRANCH_INDIRECT_CALL: 342 0.000684%
BRANCH_RETURN: 499906 0.999812%
BRANCH_OTHER: 0 0%

