Initialize SIGNATURE TABLE
ST_SET: 1
ST_WAY: 256
ST_TAG_BIT: 16
ST_TAG_MASK: ffff

Initialize PATTERN TABLE
PT_SET: 512
PT_WAY: 4
SIG_DELTA_BIT: 7
C_SIG_BIT: 4
C_DELTA_BIT: 4

Initialize PREFETCH FILTER
FILTER_SET: 1024

*** ChampSim Multicore Out-of-Order Simulator ***

Warmup Instructions: 50000000
Simulation Instructions: 50000000
Number of CPUs: 1
LLC sets: 2048
LLC ways: 16
Off-chip DRAM Size: 4096 MB Channels: 1 Width: 64-bit Data Rate: 3200 MT/s

CPU 0 runs /home/ykhodke/ChampSim/dpc3_traces/spec_gobmk_001.champsimtrace.xz
L1I D-JOLT instruction prefetcher has been constructed!
CPU 0 L1D next line prefetcher
Heartbeat CPU 0 instructions: 10000003 cycles: 3507854 heartbeat IPC: 2.85075 cumulative IPC: 2.85075 (Simulation time: 0 hr 2 min 28 sec) 
Heartbeat CPU 0 instructions: 20000002 cycles: 6988372 heartbeat IPC: 2.87314 cumulative IPC: 2.8619 (Simulation time: 0 hr 4 min 56 sec) 
Heartbeat CPU 0 instructions: 30000002 cycles: 10507127 heartbeat IPC: 2.84191 cumulative IPC: 2.85521 (Simulation time: 0 hr 7 min 23 sec) 
Heartbeat CPU 0 instructions: 40000001 cycles: 14026154 heartbeat IPC: 2.84169 cumulative IPC: 2.85182 (Simulation time: 0 hr 10 min 7 sec) 
Heartbeat CPU 0 instructions: 50000001 cycles: 17566164 heartbeat IPC: 2.82485 cumulative IPC: 2.84638 (Simulation time: 0 hr 13 min 20 sec) 

Warmup complete CPU 0 instructions: 50000001 cycles: 17566164 (Simulation time: 0 hr 13 min 20 sec) 

Heartbeat CPU 0 instructions: 60000000 cycles: 26347946 heartbeat IPC: 1.13872 cumulative IPC: 1.13872 (Simulation time: 0 hr 16 min 3 sec) 
Heartbeat CPU 0 instructions: 70000002 cycles: 34773784 heartbeat IPC: 1.18683 cumulative IPC: 1.16228 (Simulation time: 0 hr 18 min 5 sec) 
Heartbeat CPU 0 instructions: 80000003 cycles: 43626837 heartbeat IPC: 1.12955 cumulative IPC: 1.15116 (Simulation time: 0 hr 20 min 5 sec) 
Heartbeat CPU 0 instructions: 90000001 cycles: 52140730 heartbeat IPC: 1.17455 cumulative IPC: 1.15692 (Simulation time: 0 hr 22 min 2 sec) 
Heartbeat CPU 0 instructions: 100000003 cycles: 60970425 heartbeat IPC: 1.13254 cumulative IPC: 1.15196 (Simulation time: 0 hr 24 min 2 sec) 
Finished CPU 0 instructions: 50000002 cycles: 43404261 cumulative IPC: 1.15196 (Simulation time: 0 hr 24 min 2 sec) 

ChampSim completed all CPUs

Region of Interest Statistics

CPU 0 cumulative IPC: 1.15196 instructions: 50000002 cycles: 43404261
L1D TOTAL     ACCESS:   17986025  HIT:   17606519  MISS:     379506
L1D LOAD      ACCESS:    7212072  HIT:    7076884  MISS:     135188
L1D RFO       ACCESS:    3700674  HIT:    3596111  MISS:     104563
L1D PREFETCH  ACCESS:    7073279  HIT:    6933524  MISS:     139755
L1D WRITEBACK ACCESS:          0  HIT:          0  MISS:          0
L1D PREFETCH  REQUESTED:    7217429  ISSUED:    7134704  USEFUL:      45074  USELESS:      94687
L1D AVERAGE MISS LATENCY: 33.8132 cycles
L1I TOTAL     ACCESS:   14191725  HIT:   12474527  MISS:    1717198
L1I LOAD      ACCESS:    8981620  HIT:    8924453  MISS:      57167
L1I RFO       ACCESS:          0  HIT:          0  MISS:          0
L1I PREFETCH  ACCESS:    5210105  HIT:    3550074  MISS:    1660031
L1I WRITEBACK ACCESS:          0  HIT:          0  MISS:          0
L1I PREFETCH  REQUESTED:    5409688  ISSUED:    5254659  USEFUL:     797585  USELESS:     862404
L1I AVERAGE MISS LATENCY: 15.1992 cycles
L2C TOTAL     ACCESS:    3027836  HIT:    2899863  MISS:     127973
L2C LOAD      ACCESS:     166764  HIT:     130873  MISS:      35891
L2C RFO       ACCESS:     104206  HIT:      69743  MISS:      34463
L2C PREFETCH  ACCESS:    2617569  HIT:    2560083  MISS:      57486
L2C WRITEBACK ACCESS:     139297  HIT:     139164  MISS:        133
L2C PREFETCH  REQUESTED:    1339104  ISSUED:    1339020  USEFUL:       5462  USELESS:      52337
L2C AVERAGE MISS LATENCY: 63.9831 cycles
LLC TOTAL     ACCESS:     272174  HIT:     238936  MISS:      33238
LLC LOAD      ACCESS:      35889  HIT:      27706  MISS:       8183
LLC RFO       ACCESS:      34463  HIT:      28199  MISS:       6264
LLC PREFETCH  ACCESS:     156305  HIT:     137745  MISS:      18560
LLC WRITEBACK ACCESS:      45517  HIT:      45286  MISS:        231
LLC PREFETCH  REQUESTED:          0  ISSUED:          0  USEFUL:       1265  USELESS:      16342
LLC AVERAGE MISS LATENCY: 180.261 cycles
Major fault: 0 Minor fault: 4161
CPU 0 L1D next line prefetcher final stats

DRAM Statistics
 CHANNEL 0
 RQ ROW_BUFFER_HIT:       4328  ROW_BUFFER_MISS:      28678
 DBUS_CONGESTED:      17414
 WQ ROW_BUFFER_HIT:       1429  ROW_BUFFER_MISS:      13873  FULL:          0

 AVG_CONGESTED_CYCLE: 4

CPU 0 Branch Prediction Accuracy: 94.7729% MPKI: 9.72684 Average ROB Occupancy at Mispredict: 53.9122

Branch types
NOT_BRANCH: 40695363 81.3907%
BRANCH_DIRECT_JUMP: 422107 0.844214%
BRANCH_INDIRECT: 65 0.00013%
BRANCH_CONDITIONAL: 8105003 16.21%
BRANCH_DIRECT_CALL: 374912 0.749824%
BRANCH_INDIRECT_CALL: 13657 0.027314%
BRANCH_RETURN: 388556 0.777112%
BRANCH_OTHER: 0 0%

