Initialize SIGNATURE TABLE
ST_SET: 1
ST_WAY: 256
ST_TAG_BIT: 16
ST_TAG_MASK: ffff

Initialize PATTERN TABLE
PT_SET: 512
PT_WAY: 4
SIG_DELTA_BIT: 7
C_SIG_BIT: 4
C_DELTA_BIT: 4

Initialize PREFETCH FILTER
FILTER_SET: 1024

*** ChampSim Multicore Out-of-Order Simulator ***

Warmup Instructions: 50000000
Simulation Instructions: 50000000
Number of CPUs: 1
LLC sets: 2048
LLC ways: 16
Off-chip DRAM Size: 4096 MB Channels: 1 Width: 64-bit Data Rate: 3200 MT/s

CPU 0 runs /home/ykhodke/ChampSim/dpc3_traces/spec_x264_001.champsimtrace.xz
L1I D-JOLT instruction prefetcher has been constructed!
CPU 0 L1D next line prefetcher
Heartbeat CPU 0 instructions: 10000002 cycles: 3059732 heartbeat IPC: 3.26826 cumulative IPC: 3.26826 (Simulation time: 0 hr 1 min 33 sec) 
Heartbeat CPU 0 instructions: 20000002 cycles: 6109667 heartbeat IPC: 3.27876 cumulative IPC: 3.2735 (Simulation time: 0 hr 3 min 4 sec) 
Heartbeat CPU 0 instructions: 30000002 cycles: 9145084 heartbeat IPC: 3.29444 cumulative IPC: 3.28045 (Simulation time: 0 hr 4 min 35 sec) 
Heartbeat CPU 0 instructions: 40000000 cycles: 12189287 heartbeat IPC: 3.28493 cumulative IPC: 3.28157 (Simulation time: 0 hr 6 min 6 sec) 
Heartbeat CPU 0 instructions: 50000000 cycles: 15232098 heartbeat IPC: 3.28643 cumulative IPC: 3.28254 (Simulation time: 0 hr 7 min 36 sec) 

Warmup complete CPU 0 instructions: 50000004 cycles: 15232099 (Simulation time: 0 hr 7 min 36 sec) 

Heartbeat CPU 0 instructions: 60000001 cycles: 21166813 heartbeat IPC: 1.685 cumulative IPC: 1.685 (Simulation time: 0 hr 8 min 40 sec) 
Heartbeat CPU 0 instructions: 70000000 cycles: 27081300 heartbeat IPC: 1.69076 cumulative IPC: 1.68788 (Simulation time: 0 hr 9 min 45 sec) 
Heartbeat CPU 0 instructions: 80000003 cycles: 33141026 heartbeat IPC: 1.65024 cumulative IPC: 1.67514 (Simulation time: 0 hr 10 min 50 sec) 
Heartbeat CPU 0 instructions: 90000002 cycles: 39181371 heartbeat IPC: 1.65553 cumulative IPC: 1.6702 (Simulation time: 0 hr 11 min 55 sec) 
Heartbeat CPU 0 instructions: 100000002 cycles: 45082682 heartbeat IPC: 1.69454 cumulative IPC: 1.67501 (Simulation time: 0 hr 13 min 2 sec) 
Finished CPU 0 instructions: 50000002 cycles: 29850584 cumulative IPC: 1.67501 (Simulation time: 0 hr 13 min 2 sec) 

ChampSim completed all CPUs

Region of Interest Statistics

CPU 0 cumulative IPC: 1.67501 instructions: 50000002 cycles: 29850584
L1D TOTAL     ACCESS:   12971895  HIT:   12810831  MISS:     161064
L1D LOAD      ACCESS:    5097501  HIT:    5042441  MISS:      55060
L1D RFO       ACCESS:    2880987  HIT:    2846681  MISS:      34306
L1D PREFETCH  ACCESS:    4993407  HIT:    4921709  MISS:      71698
L1D WRITEBACK ACCESS:          0  HIT:          0  MISS:          0
L1D PREFETCH  REQUESTED:    5114254  ISSUED:    5046996  USEFUL:      25810  USELESS:      45697
L1D AVERAGE MISS LATENCY: 40.3973 cycles
L1I TOTAL     ACCESS:    9331472  HIT:    8932405  MISS:     399067
L1I LOAD      ACCESS:    8038104  HIT:    8029539  MISS:       8565
L1I RFO       ACCESS:          0  HIT:          0  MISS:          0
L1I PREFETCH  ACCESS:    1293368  HIT:     902866  MISS:     390502
L1I WRITEBACK ACCESS:          0  HIT:          0  MISS:          0
L1I PREFETCH  REQUESTED:    1352234  ISSUED:    1339302  USEFUL:     300790  USELESS:      89757
L1I AVERAGE MISS LATENCY: 14.949 cycles
L2C TOTAL     ACCESS:     862324  HIT:     823749  MISS:      38575
L2C LOAD      ACCESS:      61162  HIT:      55886  MISS:       5276
L2C RFO       ACCESS:      34108  HIT:      22049  MISS:      12059
L2C PREFETCH  ACCESS:     723967  HIT:     702802  MISS:      21165
L2C WRITEBACK ACCESS:      43087  HIT:      43012  MISS:         75
L2C PREFETCH  REQUESTED:     678857  ISSUED:     675013  USEFUL:       8967  USELESS:      12441
L2C AVERAGE MISS LATENCY: 106.433 cycles
LLC TOTAL     ACCESS:     124285  HIT:      95181  MISS:      29104
LLC LOAD      ACCESS:       5276  HIT:       3152  MISS:       2124
LLC RFO       ACCESS:      12059  HIT:        444  MISS:      11615
LLC PREFETCH  ACCESS:      93355  HIT:      78049  MISS:      15306
LLC WRITEBACK ACCESS:      13595  HIT:      13536  MISS:         59
LLC PREFETCH  REQUESTED:          0  ISSUED:          0  USEFUL:       1721  USELESS:      13923
LLC AVERAGE MISS LATENCY: 166.129 cycles
Major fault: 0 Minor fault: 1285
CPU 0 L1D next line prefetcher final stats

DRAM Statistics
 CHANNEL 0
 RQ ROW_BUFFER_HIT:       8867  ROW_BUFFER_MISS:      20178
 DBUS_CONGESTED:      12371
 WQ ROW_BUFFER_HIT:       2862  ROW_BUFFER_MISS:       9913  FULL:          0

 AVG_CONGESTED_CYCLE: 6

CPU 0 Branch Prediction Accuracy: 97.1633% MPKI: 1.73704 Average ROB Occupancy at Mispredict: 43.1204

Branch types
NOT_BRANCH: 46937921 93.8758%
BRANCH_DIRECT_JUMP: 170816 0.341632%
BRANCH_INDIRECT: 0 0%
BRANCH_CONDITIONAL: 2532774 5.06555%
BRANCH_DIRECT_CALL: 114227 0.228454%
BRANCH_INDIRECT_CALL: 64863 0.129726%
BRANCH_RETURN: 179089 0.358178%
BRANCH_OTHER: 0 0%

