Initialize SIGNATURE TABLE
ST_SET: 1
ST_WAY: 256
ST_TAG_BIT: 16
ST_TAG_MASK: ffff

Initialize PATTERN TABLE
PT_SET: 512
PT_WAY: 4
SIG_DELTA_BIT: 7
C_SIG_BIT: 4
C_DELTA_BIT: 4

Initialize PREFETCH FILTER
FILTER_SET: 1024

*** ChampSim Multicore Out-of-Order Simulator ***

Warmup Instructions: 50000000
Simulation Instructions: 50000000
Number of CPUs: 1
LLC sets: 2048
LLC ways: 16
Off-chip DRAM Size: 4096 MB Channels: 1 Width: 64-bit Data Rate: 3200 MT/s

CPU 0 runs /home/ykhodke/ChampSim/dpc3_traces/spec_gcc_003.champsimtrace.xz
LHT KB: 126.25
SCC KB: 1.56
Total KB: 127.81
CPU 0 L1D next line prefetcher
Heartbeat CPU 0 instructions: 10000001 cycles: 3485395 heartbeat IPC: 2.86912 cumulative IPC: 2.86912 (Simulation time: 0 hr 2 min 37 sec) 
Heartbeat CPU 0 instructions: 20000000 cycles: 6953857 heartbeat IPC: 2.88312 cumulative IPC: 2.8761 (Simulation time: 0 hr 5 min 4 sec) 
Heartbeat CPU 0 instructions: 30000002 cycles: 10399006 heartbeat IPC: 2.90263 cumulative IPC: 2.88489 (Simulation time: 0 hr 7 min 30 sec) 
Heartbeat CPU 0 instructions: 40000000 cycles: 13876136 heartbeat IPC: 2.87593 cumulative IPC: 2.88265 (Simulation time: 0 hr 9 min 54 sec) 
Heartbeat CPU 0 instructions: 50000001 cycles: 17187196 heartbeat IPC: 3.02018 cumulative IPC: 2.90914 (Simulation time: 0 hr 12 min 36 sec) 

Warmup complete CPU 0 instructions: 50000001 cycles: 17187196 (Simulation time: 0 hr 12 min 36 sec) 

Heartbeat CPU 0 instructions: 60000000 cycles: 56902041 heartbeat IPC: 0.251795 cumulative IPC: 0.251795 (Simulation time: 0 hr 19 min 13 sec) 
Heartbeat CPU 0 instructions: 70000000 cycles: 99244534 heartbeat IPC: 0.236169 cumulative IPC: 0.243732 (Simulation time: 0 hr 25 min 49 sec) 
Heartbeat CPU 0 instructions: 80000003 cycles: 142560343 heartbeat IPC: 0.230863 cumulative IPC: 0.239286 (Simulation time: 0 hr 29 min 32 sec) 
Heartbeat CPU 0 instructions: 90000002 cycles: 179182051 heartbeat IPC: 0.273062 cumulative IPC: 0.246921 (Simulation time: 0 hr 30 min 27 sec) 
Heartbeat CPU 0 instructions: 100000000 cycles: 225332531 heartbeat IPC: 0.216682 cumulative IPC: 0.240217 (Simulation time: 0 hr 31 min 4 sec) 
Finished CPU 0 instructions: 50000000 cycles: 208145336 cumulative IPC: 0.240217 (Simulation time: 0 hr 31 min 4 sec) 

ChampSim completed all CPUs

Region of Interest Statistics

CPU 0 cumulative IPC: 0.240217 instructions: 50000000 cycles: 208145336
L1D TOTAL     ACCESS:   16941672  HIT:   11217263  MISS:    5724409
L1D LOAD      ACCESS:    4608801  HIT:    4225956  MISS:     382845
L1D RFO       ACCESS:    8212588  HIT:    3160773  MISS:    5051815
L1D PREFETCH  ACCESS:    4120283  HIT:    3830534  MISS:     289749
L1D WRITEBACK ACCESS:          0  HIT:          0  MISS:          0
L1D PREFETCH  REQUESTED:    4627145  ISSUED:    4568094  USEFUL:     152400  USELESS:     137529
L1D AVERAGE MISS LATENCY: 496.604 cycles
L1I TOTAL     ACCESS:   22832747  HIT:   21500829  MISS:    1331918
L1I LOAD      ACCESS:   11246101  HIT:   10981417  MISS:     264684
L1I RFO       ACCESS:          0  HIT:          0  MISS:          0
L1I PREFETCH  ACCESS:   11586646  HIT:   10519412  MISS:    1067234
L1I WRITEBACK ACCESS:          0  HIT:          0  MISS:          0
L1I PREFETCH  REQUESTED:   13041418  ISSUED:   13041418  USEFUL:     589195  USELESS:     477965
L1I AVERAGE MISS LATENCY: 40.3061 cycles
L2C TOTAL     ACCESS:   12598389  HIT:    6525689  MISS:    6072700
L2C LOAD      ACCESS:     241306  HIT:      70757  MISS:     170549
L2C RFO       ACCESS:    5049995  HIT:       6469  MISS:    5043526
L2C PREFETCH  ACCESS:    2149250  HIT:    1290854  MISS:     858396
L2C WRITEBACK ACCESS:    5157838  HIT:    5157609  MISS:        229
L2C PREFETCH  REQUESTED:    1813556  ISSUED:    1813483  USEFUL:      27073  USELESS:     828337
L2C AVERAGE MISS LATENCY: 464.663 cycles
LLC TOTAL     ACCESS:   11928180  HIT:    7305568  MISS:    4622612
LLC LOAD      ACCESS:     170523  HIT:     129280  MISS:      41243
LLC RFO       ACCESS:    5043527  HIT:     705644  MISS:    4337883
LLC PREFETCH  ACCESS:    1580361  HIT:    1336875  MISS:     243486
LLC WRITEBACK ACCESS:    5133769  HIT:    5133769  MISS:          0
LLC PREFETCH  REQUESTED:          0  ISSUED:          0  USEFUL:      10990  USELESS:     232200
LLC AVERAGE MISS LATENCY: 578.119 cycles
Major fault: 0 Minor fault: 2821
CPU 0 L1D next line prefetcher final stats

DRAM Statistics
 CHANNEL 0
 RQ ROW_BUFFER_HIT:    1388552  ROW_BUFFER_MISS:    3233971
 DBUS_CONGESTED:    8043745
 WQ ROW_BUFFER_HIT:    1164247  ROW_BUFFER_MISS:    3201324  FULL:          0

 AVG_CONGESTED_CYCLE: 6

CPU 0 Branch Prediction Accuracy: 99.665% MPKI: 0.78342 Average ROB Occupancy at Mispredict: 110.467

Branch types
NOT_BRANCH: 38305856 76.6117%
BRANCH_DIRECT_JUMP: 384281 0.768562%
BRANCH_INDIRECT: 71949 0.143898%
BRANCH_CONDITIONAL: 9879825 19.7597%
BRANCH_DIRECT_CALL: 650586 1.30117%
BRANCH_INDIRECT_CALL: 28456 0.056912%
BRANCH_RETURN: 679046 1.35809%
BRANCH_OTHER: 0 0%

