Initialize SIGNATURE TABLE
ST_SET: 1
ST_WAY: 256
ST_TAG_BIT: 16
ST_TAG_MASK: ffff

Initialize PATTERN TABLE
PT_SET: 512
PT_WAY: 4
SIG_DELTA_BIT: 7
C_SIG_BIT: 4
C_DELTA_BIT: 4

Initialize PREFETCH FILTER
FILTER_SET: 1024

*** ChampSim Multicore Out-of-Order Simulator ***

Warmup Instructions: 50000000
Simulation Instructions: 50000000
Number of CPUs: 1
LLC sets: 2048
LLC ways: 16
Off-chip DRAM Size: 4096 MB Channels: 1 Width: 64-bit Data Rate: 3200 MT/s

CPU 0 runs /home/ykhodke/ChampSim/dpc3_traces/spec_x264_001.champsimtrace.xz
CPU 0 L1D next line prefetcher
Heartbeat CPU 0 instructions: 10000002 cycles: 3059140 heartbeat IPC: 3.26889 cumulative IPC: 3.26889 (Simulation time: 0 hr 0 min 10 sec) 
Heartbeat CPU 0 instructions: 20000002 cycles: 6108483 heartbeat IPC: 3.27939 cumulative IPC: 3.27414 (Simulation time: 0 hr 0 min 20 sec) 
Heartbeat CPU 0 instructions: 30000002 cycles: 9143533 heartbeat IPC: 3.29484 cumulative IPC: 3.28101 (Simulation time: 0 hr 0 min 30 sec) 
Heartbeat CPU 0 instructions: 40000000 cycles: 12187201 heartbeat IPC: 3.28551 cumulative IPC: 3.28213 (Simulation time: 0 hr 0 min 40 sec) 
Heartbeat CPU 0 instructions: 50000000 cycles: 15229280 heartbeat IPC: 3.28723 cumulative IPC: 3.28315 (Simulation time: 0 hr 0 min 50 sec) 

Warmup complete CPU 0 instructions: 50000004 cycles: 15229281 (Simulation time: 0 hr 0 min 50 sec) 

Heartbeat CPU 0 instructions: 60000001 cycles: 21568392 heartbeat IPC: 1.57751 cumulative IPC: 1.57751 (Simulation time: 0 hr 0 min 57 sec) 
Heartbeat CPU 0 instructions: 70000000 cycles: 27877534 heartbeat IPC: 1.585 cumulative IPC: 1.58125 (Simulation time: 0 hr 1 min 4 sec) 
Heartbeat CPU 0 instructions: 80000003 cycles: 34383029 heartbeat IPC: 1.53716 cumulative IPC: 1.56627 (Simulation time: 0 hr 1 min 11 sec) 
Heartbeat CPU 0 instructions: 90000002 cycles: 40847582 heartbeat IPC: 1.5469 cumulative IPC: 1.56138 (Simulation time: 0 hr 1 min 17 sec) 
Heartbeat CPU 0 instructions: 100000002 cycles: 47139365 heartbeat IPC: 1.58937 cumulative IPC: 1.5669 (Simulation time: 0 hr 1 min 24 sec) 
Finished CPU 0 instructions: 50000002 cycles: 31910085 cumulative IPC: 1.5669 (Simulation time: 0 hr 1 min 24 sec) 

ChampSim completed all CPUs

Region of Interest Statistics

CPU 0 cumulative IPC: 1.5669 instructions: 50000002 cycles: 31910085
L1D TOTAL     ACCESS:   13153993  HIT:   12989444  MISS:     164549
L1D LOAD      ACCESS:    5185361  HIT:    5130118  MISS:      55243
L1D RFO       ACCESS:    2884508  HIT:    2849780  MISS:      34728
L1D PREFETCH  ACCESS:    5084124  HIT:    5009546  MISS:      74578
L1D WRITEBACK ACCESS:          0  HIT:          0  MISS:          0
L1D PREFETCH  REQUESTED:    5201141  ISSUED:    5136893  USEFUL:      26331  USELESS:      48055
L1D AVERAGE MISS LATENCY: 39.391 cycles
L1I TOTAL     ACCESS:    8036299  HIT:    7776189  MISS:     260110
L1I LOAD      ACCESS:    8036299  HIT:    7776189  MISS:     260110
L1I RFO       ACCESS:          0  HIT:          0  MISS:          0
L1I PREFETCH  ACCESS:          0  HIT:          0  MISS:          0
L1I WRITEBACK ACCESS:          0  HIT:          0  MISS:          0
L1I PREFETCH  REQUESTED:          0  ISSUED:          0  USEFUL:          0  USELESS:          0
L1I AVERAGE MISS LATENCY: 14.3102 cycles
L2C TOTAL     ACCESS:     841092  HIT:     802383  MISS:      38709
L2C LOAD      ACCESS:     314576  HIT:     307612  MISS:       6964
L2C RFO       ACCESS:      34605  HIT:      22531  MISS:      12074
L2C PREFETCH  ACCESS:     448179  HIT:     428572  MISS:      19607
L2C WRITEBACK ACCESS:      43732  HIT:      43668  MISS:         64
L2C PREFETCH  REQUESTED:     508501  ISSUED:     507872  USEFUL:       8941  USELESS:      10996
L2C AVERAGE MISS LATENCY: 104.525 cycles
LLC TOTAL     ACCESS:     129518  HIT:     100448  MISS:      29070
LLC LOAD      ACCESS:       6941  HIT:       4847  MISS:       2094
LLC RFO       ACCESS:      12074  HIT:        472  MISS:      11602
LLC PREFETCH  ACCESS:      96911  HIT:      81605  MISS:      15306
LLC WRITEBACK ACCESS:      13592  HIT:      13524  MISS:         68
LLC PREFETCH  REQUESTED:          0  ISSUED:          0  USEFUL:       1715  USELESS:      13951
LLC AVERAGE MISS LATENCY: 163.846 cycles
Major fault: 0 Minor fault: 1284
CPU 0 L1D next line prefetcher final stats

DRAM Statistics
 CHANNEL 0
 RQ ROW_BUFFER_HIT:       9071  ROW_BUFFER_MISS:      19931
 DBUS_CONGESTED:      12035
 WQ ROW_BUFFER_HIT:       3003  ROW_BUFFER_MISS:       9777  FULL:          0

 AVG_CONGESTED_CYCLE: 6

CPU 0 Branch Prediction Accuracy: 97.1633% MPKI: 1.73704 Average ROB Occupancy at Mispredict: 33.4045

Branch types
NOT_BRANCH: 46937921 93.8758%
BRANCH_DIRECT_JUMP: 170816 0.341632%
BRANCH_INDIRECT: 0 0%
BRANCH_CONDITIONAL: 2532774 5.06555%
BRANCH_DIRECT_CALL: 114227 0.228454%
BRANCH_INDIRECT_CALL: 64863 0.129726%
BRANCH_RETURN: 179089 0.358178%
BRANCH_OTHER: 0 0%

