Initialize SIGNATURE TABLE
ST_SET: 1
ST_WAY: 256
ST_TAG_BIT: 16
ST_TAG_MASK: ffff

Initialize PATTERN TABLE
PT_SET: 512
PT_WAY: 4
SIG_DELTA_BIT: 7
C_SIG_BIT: 4
C_DELTA_BIT: 4

Initialize PREFETCH FILTER
FILTER_SET: 1024

*** ChampSim Multicore Out-of-Order Simulator ***

Warmup Instructions: 50000000
Simulation Instructions: 50000000
Number of CPUs: 1
LLC sets: 2048
LLC ways: 16
Off-chip DRAM Size: 4096 MB Channels: 1 Width: 64-bit Data Rate: 3200 MT/s

CPU 0 runs /home/ykhodke/ChampSim/dpc3_traces/spec_perlbench_001.champsimtrace.xz
L1I D-JOLT instruction prefetcher has been constructed!
CPU 0 L1D next line prefetcher
Heartbeat CPU 0 instructions: 10000000 cycles: 3276231 heartbeat IPC: 3.05229 cumulative IPC: 3.05229 (Simulation time: 0 hr 2 min 37 sec) 
Heartbeat CPU 0 instructions: 20000000 cycles: 6542060 heartbeat IPC: 3.06201 cumulative IPC: 3.05714 (Simulation time: 0 hr 5 min 42 sec) 
Heartbeat CPU 0 instructions: 30000002 cycles: 9860901 heartbeat IPC: 3.0131 cumulative IPC: 3.04232 (Simulation time: 0 hr 8 min 43 sec) 
Heartbeat CPU 0 instructions: 40000002 cycles: 13117450 heartbeat IPC: 3.07074 cumulative IPC: 3.04937 (Simulation time: 0 hr 11 min 46 sec) 
Heartbeat CPU 0 instructions: 50000001 cycles: 16392274 heartbeat IPC: 3.0536 cumulative IPC: 3.05022 (Simulation time: 0 hr 14 min 36 sec) 

Warmup complete CPU 0 instructions: 50000001 cycles: 16392274 (Simulation time: 0 hr 14 min 36 sec) 

Heartbeat CPU 0 instructions: 60000001 cycles: 24683258 heartbeat IPC: 1.20613 cumulative IPC: 1.20613 (Simulation time: 0 hr 17 min 32 sec) 
Heartbeat CPU 0 instructions: 70000000 cycles: 32792029 heartbeat IPC: 1.23323 cumulative IPC: 1.21953 (Simulation time: 0 hr 20 min 17 sec) 
Heartbeat CPU 0 instructions: 80000000 cycles: 41242366 heartbeat IPC: 1.18338 cumulative IPC: 1.20724 (Simulation time: 0 hr 22 min 52 sec) 
Heartbeat CPU 0 instructions: 90000000 cycles: 46998396 heartbeat IPC: 1.73731 cumulative IPC: 1.30693 (Simulation time: 0 hr 24 min 46 sec) 
Heartbeat CPU 0 instructions: 100000002 cycles: 52910663 heartbeat IPC: 1.6914 cumulative IPC: 1.36917 (Simulation time: 0 hr 26 min 37 sec) 
Finished CPU 0 instructions: 50000001 cycles: 36518389 cumulative IPC: 1.36917 (Simulation time: 0 hr 26 min 37 sec) 

ChampSim completed all CPUs

Region of Interest Statistics

CPU 0 cumulative IPC: 1.36917 instructions: 50000001 cycles: 36518389
L1D TOTAL     ACCESS:   20682244  HIT:   20267166  MISS:     415078
L1D LOAD      ACCESS:    7171302  HIT:    6957470  MISS:     213832
L1D RFO       ACCESS:    6542092  HIT:    6523578  MISS:      18514
L1D PREFETCH  ACCESS:    6968850  HIT:    6786118  MISS:     182732
L1D WRITEBACK ACCESS:          0  HIT:          0  MISS:          0
L1D PREFETCH  REQUESTED:    7187133  ISSUED:    7070647  USEFUL:      55061  USELESS:     127666
L1D AVERAGE MISS LATENCY: 59.8307 cycles
L1I TOTAL     ACCESS:   17362380  HIT:   15761293  MISS:    1601087
L1I LOAD      ACCESS:    9186272  HIT:    9138454  MISS:      47818
L1I RFO       ACCESS:          0  HIT:          0  MISS:          0
L1I PREFETCH  ACCESS:    8176108  HIT:    6622839  MISS:    1553269
L1I WRITEBACK ACCESS:          0  HIT:          0  MISS:          0
L1I PREFETCH  REQUESTED:    8745959  ISSUED:    8338766  USEFUL:     620684  USELESS:     932617
L1I AVERAGE MISS LATENCY: 16.1643 cycles
L2C TOTAL     ACCESS:    2836151  HIT:    2662102  MISS:     174049
L2C LOAD      ACCESS:     252548  HIT:     171541  MISS:      81007
L2C RFO       ACCESS:      18262  HIT:      12475  MISS:       5787
L2C PREFETCH  ACCESS:    2486389  HIT:    2399638  MISS:      86751
L2C WRITEBACK ACCESS:      78952  HIT:      78448  MISS:        504
L2C PREFETCH  REQUESTED:    1528416  ISSUED:    1528171  USEFUL:       6773  USELESS:      79983
L2C AVERAGE MISS LATENCY: 117.991 cycles
LLC TOTAL     ACCESS:     455929  HIT:     311646  MISS:     144283
LLC LOAD      ACCESS:      81007  HIT:      31037  MISS:      49970
LLC RFO       ACCESS:       5787  HIT:       2692  MISS:       3095
LLC PREFETCH  ACCESS:     342439  HIT:     251684  MISS:      90755
LLC WRITEBACK ACCESS:      26696  HIT:      26233  MISS:        463
LLC PREFETCH  REQUESTED:          0  ISSUED:          0  USEFUL:      12721  USELESS:      78165
LLC AVERAGE MISS LATENCY: 160.654 cycles
Major fault: 0 Minor fault: 6365
CPU 0 L1D next line prefetcher final stats

DRAM Statistics
 CHANNEL 0
 RQ ROW_BUFFER_HIT:      32759  ROW_BUFFER_MISS:     111060
 DBUS_CONGESTED:      55724
 WQ ROW_BUFFER_HIT:       4459  ROW_BUFFER_MISS:      12915  FULL:          0

 AVG_CONGESTED_CYCLE: 4

CPU 0 Branch Prediction Accuracy: 98.7418% MPKI: 2.47758 Average ROB Occupancy at Mispredict: 80.1423

Branch types
NOT_BRANCH: 40154100 80.3082%
BRANCH_DIRECT_JUMP: 817094 1.63419%
BRANCH_INDIRECT: 303787 0.607574%
BRANCH_CONDITIONAL: 7492103 14.9842%
BRANCH_DIRECT_CALL: 471777 0.943554%
BRANCH_INDIRECT_CALL: 144546 0.289092%
BRANCH_RETURN: 616324 1.23265%
BRANCH_OTHER: 0 0%

