Initialize SIGNATURE TABLE
ST_SET: 1
ST_WAY: 256
ST_TAG_BIT: 16
ST_TAG_MASK: ffff

Initialize PATTERN TABLE
PT_SET: 512
PT_WAY: 4
SIG_DELTA_BIT: 7
C_SIG_BIT: 4
C_DELTA_BIT: 4

Initialize PREFETCH FILTER
FILTER_SET: 1024

*** ChampSim Multicore Out-of-Order Simulator ***

Warmup Instructions: 50000000
Simulation Instructions: 50000000
Number of CPUs: 1
LLC sets: 2048
LLC ways: 16
Off-chip DRAM Size: 4096 MB Channels: 1 Width: 64-bit Data Rate: 3200 MT/s

CPU 0 runs /home/ykhodke/ChampSim/dpc3_traces/spec_gcc_001.champsimtrace.xz
LHT KB: 126.25
SCC KB: 1.56
Total KB: 127.81
CPU 0 L1D next line prefetcher
Heartbeat CPU 0 instructions: 10000003 cycles: 3219636 heartbeat IPC: 3.10594 cumulative IPC: 3.10594 (Simulation time: 0 hr 3 min 11 sec) 
Heartbeat CPU 0 instructions: 20000002 cycles: 6464410 heartbeat IPC: 3.08188 cumulative IPC: 3.09386 (Simulation time: 0 hr 6 min 1 sec) 
Heartbeat CPU 0 instructions: 30000000 cycles: 9665262 heartbeat IPC: 3.12417 cumulative IPC: 3.1039 (Simulation time: 0 hr 9 min 6 sec) 
Heartbeat CPU 0 instructions: 40000001 cycles: 12907386 heartbeat IPC: 3.0844 cumulative IPC: 3.099 (Simulation time: 0 hr 11 min 37 sec) 
Heartbeat CPU 0 instructions: 50000001 cycles: 16148348 heartbeat IPC: 3.0855 cumulative IPC: 3.09629 (Simulation time: 0 hr 14 min 10 sec) 

Warmup complete CPU 0 instructions: 50000001 cycles: 16148348 (Simulation time: 0 hr 14 min 10 sec) 

Heartbeat CPU 0 instructions: 60000000 cycles: 23808269 heartbeat IPC: 1.3055 cumulative IPC: 1.3055 (Simulation time: 0 hr 16 min 37 sec) 
Heartbeat CPU 0 instructions: 70000002 cycles: 31617364 heartbeat IPC: 1.28056 cumulative IPC: 1.29291 (Simulation time: 0 hr 19 min 18 sec) 
Heartbeat CPU 0 instructions: 80000000 cycles: 39137029 heartbeat IPC: 1.32985 cumulative IPC: 1.30499 (Simulation time: 0 hr 21 min 51 sec) 
Heartbeat CPU 0 instructions: 90000001 cycles: 46949910 heartbeat IPC: 1.27994 cumulative IPC: 1.29864 (Simulation time: 0 hr 24 min 23 sec) 
Heartbeat CPU 0 instructions: 100000000 cycles: 55024331 heartbeat IPC: 1.23848 cumulative IPC: 1.28614 (Simulation time: 0 hr 26 min 52 sec) 
Finished CPU 0 instructions: 50000000 cycles: 38875987 cumulative IPC: 1.28614 (Simulation time: 0 hr 26 min 52 sec) 

ChampSim completed all CPUs

Region of Interest Statistics

CPU 0 cumulative IPC: 1.28614 instructions: 50000000 cycles: 38875987
L1D TOTAL     ACCESS:   19307189  HIT:   18202052  MISS:    1105137
L1D LOAD      ACCESS:    7227010  HIT:    6746818  MISS:     480192
L1D RFO       ACCESS:    5115127  HIT:    5035422  MISS:      79705
L1D PREFETCH  ACCESS:    6965052  HIT:    6419812  MISS:     545240
L1D WRITEBACK ACCESS:          0  HIT:          0  MISS:          0
L1D PREFETCH  REQUESTED:    7272014  ISSUED:    7174371  USEFUL:     275013  USELESS:     270240
L1D AVERAGE MISS LATENCY: 26.6047 cycles
L1I TOTAL     ACCESS:   19795410  HIT:   18942521  MISS:     852889
L1I LOAD      ACCESS:    9287141  HIT:    9210683  MISS:      76458
L1I RFO       ACCESS:          0  HIT:          0  MISS:          0
L1I PREFETCH  ACCESS:   10508269  HIT:    9731838  MISS:     776431
L1I WRITEBACK ACCESS:          0  HIT:          0  MISS:          0
L1I PREFETCH  REQUESTED:   12363285  ISSUED:   12363285  USEFUL:     346861  USELESS:     429504
L1I AVERAGE MISS LATENCY: 18.8368 cycles
L2C TOTAL     ACCESS:    3134817  HIT:    2834932  MISS:     299885
L2C LOAD      ACCESS:     467644  HIT:     386817  MISS:      80827
L2C RFO       ACCESS:      74986  HIT:      34451  MISS:      40535
L2C PREFETCH  ACCESS:    2338435  HIT:    2160618  MISS:     177817
L2C WRITEBACK ACCESS:     253752  HIT:     253046  MISS:        706
L2C PREFETCH  REQUESTED:    1830339  ISSUED:    1830177  USEFUL:      34018  USELESS:     142527
L2C AVERAGE MISS LATENCY: 64.2585 cycles
LLC TOTAL     ACCESS:     721877  HIT:     645498  MISS:      76379
LLC LOAD      ACCESS:      80646  HIT:      74285  MISS:       6361
LLC RFO       ACCESS:      40534  HIT:      19167  MISS:      21367
LLC PREFETCH  ACCESS:     500048  HIT:     452118  MISS:      47930
LLC WRITEBACK ACCESS:     100649  HIT:      99928  MISS:        721
LLC PREFETCH  REQUESTED:          0  ISSUED:          0  USEFUL:       9114  USELESS:      40997
LLC AVERAGE MISS LATENCY: 196.257 cycles
Major fault: 0 Minor fault: 6880
CPU 0 L1D next line prefetcher final stats

DRAM Statistics
 CHANNEL 0
 RQ ROW_BUFFER_HIT:      21462  ROW_BUFFER_MISS:      54189
 DBUS_CONGESTED:      43973
 WQ ROW_BUFFER_HIT:       3918  ROW_BUFFER_MISS:      24762  FULL:          0

 AVG_CONGESTED_CYCLE: 6

CPU 0 Branch Prediction Accuracy: 95.8872% MPKI: 9.67286 Average ROB Occupancy at Mispredict: 67.9662

Branch types
NOT_BRANCH: 38240102 76.4802%
BRANCH_DIRECT_JUMP: 653296 1.30659%
BRANCH_INDIRECT: 37098 0.074196%
BRANCH_CONDITIONAL: 8897819 17.7956%
BRANCH_DIRECT_CALL: 992620 1.98524%
BRANCH_INDIRECT_CALL: 93046 0.186092%
BRANCH_RETURN: 1085674 2.17135%
BRANCH_OTHER: 0 0%

