Initialize SIGNATURE TABLE
ST_SET: 1
ST_WAY: 256
ST_TAG_BIT: 16
ST_TAG_MASK: ffff

Initialize PATTERN TABLE
PT_SET: 512
PT_WAY: 4
SIG_DELTA_BIT: 7
C_SIG_BIT: 4
C_DELTA_BIT: 4

Initialize PREFETCH FILTER
FILTER_SET: 1024

*** ChampSim Multicore Out-of-Order Simulator ***

Warmup Instructions: 50000000
Simulation Instructions: 50000000
Number of CPUs: 1
LLC sets: 2048
LLC ways: 16
Off-chip DRAM Size: 4096 MB Channels: 1 Width: 64-bit Data Rate: 3200 MT/s

CPU 0 runs /home/ykhodke/ChampSim/dpc3_traces/spec_gobmk_001.champsimtrace.xz
CPU 0 EPI prefetcher
CPU 0 L1D next line prefetcher
Heartbeat CPU 0 instructions: 10000003 cycles: 3507724 heartbeat IPC: 2.85085 cumulative IPC: 2.85085 (Simulation time: 0 hr 2 min 59 sec) 
Heartbeat CPU 0 instructions: 20000002 cycles: 6988325 heartbeat IPC: 2.87307 cumulative IPC: 2.86192 (Simulation time: 0 hr 5 min 57 sec) 
Heartbeat CPU 0 instructions: 30000002 cycles: 10507873 heartbeat IPC: 2.84127 cumulative IPC: 2.855 (Simulation time: 0 hr 9 min 11 sec) 
Heartbeat CPU 0 instructions: 40000001 cycles: 14027590 heartbeat IPC: 2.84114 cumulative IPC: 2.85152 (Simulation time: 0 hr 12 min 43 sec) 
Heartbeat CPU 0 instructions: 50000001 cycles: 17568155 heartbeat IPC: 2.82441 cumulative IPC: 2.84606 (Simulation time: 0 hr 16 min 17 sec) 

Warmup complete CPU 0 instructions: 50000001 cycles: 17568155 (Simulation time: 0 hr 16 min 17 sec) 

Heartbeat CPU 0 instructions: 60000000 cycles: 26341582 heartbeat IPC: 1.13981 cumulative IPC: 1.13981 (Simulation time: 0 hr 19 min 11 sec) 
Heartbeat CPU 0 instructions: 70000002 cycles: 34756236 heartbeat IPC: 1.1884 cumulative IPC: 1.1636 (Simulation time: 0 hr 21 min 58 sec) 
Heartbeat CPU 0 instructions: 80000003 cycles: 43589503 heartbeat IPC: 1.13208 cumulative IPC: 1.1529 (Simulation time: 0 hr 24 min 36 sec) 
Heartbeat CPU 0 instructions: 90000001 cycles: 52098945 heartbeat IPC: 1.17516 cumulative IPC: 1.15839 (Simulation time: 0 hr 27 min 6 sec) 
Heartbeat CPU 0 instructions: 100000003 cycles: 60929474 heartbeat IPC: 1.13244 cumulative IPC: 1.1531 (Simulation time: 0 hr 29 min 46 sec) 
Finished CPU 0 instructions: 50000002 cycles: 43361319 cumulative IPC: 1.1531 (Simulation time: 0 hr 29 min 46 sec) 

ChampSim completed all CPUs

Region of Interest Statistics

CPU 0 cumulative IPC: 1.1531 instructions: 50000002 cycles: 43361319
L1D TOTAL     ACCESS:   17987282  HIT:   17607754  MISS:     379528
L1D LOAD      ACCESS:    7211832  HIT:    7077684  MISS:     134148
L1D RFO       ACCESS:    3701944  HIT:    3597381  MISS:     104563
L1D PREFETCH  ACCESS:    7073506  HIT:    6932689  MISS:     140817
L1D WRITEBACK ACCESS:          0  HIT:          0  MISS:          0
L1D PREFETCH  REQUESTED:    7217338  ISSUED:    7134643  USEFUL:      46112  USELESS:      94710
L1D AVERAGE MISS LATENCY: 34.0269 cycles
L1I TOTAL     ACCESS:   47705869  HIT:   46135892  MISS:    1569977
L1I LOAD      ACCESS:    8953190  HIT:    8878636  MISS:      74554
L1I RFO       ACCESS:          0  HIT:          0  MISS:          0
L1I PREFETCH  ACCESS:   38752679  HIT:   37257256  MISS:    1495423
L1I WRITEBACK ACCESS:          0  HIT:          0  MISS:          0
L1I PREFETCH  REQUESTED:   53180227  ISSUED:   53180227  USEFUL:     684031  USELESS:     811379
L1I AVERAGE MISS LATENCY: 15.0933 cycles
L2C TOTAL     ACCESS:    3069939  HIT:    2940987  MISS:     128952
L2C LOAD      ACCESS:     172153  HIT:     137112  MISS:      35041
L2C RFO       ACCESS:     104193  HIT:      69654  MISS:      34539
L2C PREFETCH  ACCESS:    2654298  HIT:    2594998  MISS:      59300
L2C WRITEBACK ACCESS:     139295  HIT:     139223  MISS:         72
L2C PREFETCH  REQUESTED:    2421296  ISSUED:    2420568  USEFUL:       4798  USELESS:      54703
L2C AVERAGE MISS LATENCY: 65.058 cycles
LLC TOTAL     ACCESS:     290264  HIT:     249945  MISS:      40319
LLC LOAD      ACCESS:      35039  HIT:      26824  MISS:       8215
LLC RFO       ACCESS:      34539  HIT:      27076  MISS:       7463
LLC PREFETCH  ACCESS:     175241  HIT:     150895  MISS:      24346
LLC WRITEBACK ACCESS:      45445  HIT:      45150  MISS:        295
LLC PREFETCH  REQUESTED:          0  ISSUED:          0  USEFUL:       1424  USELESS:      20539
LLC AVERAGE MISS LATENCY: 177.831 cycles
Major fault: 0 Minor fault: 4156
CPU 0 L1I EPI prefetcher final stats
CPU 0 L1D next line prefetcher final stats

DRAM Statistics
 CHANNEL 0
 RQ ROW_BUFFER_HIT:       5224  ROW_BUFFER_MISS:      34797
 DBUS_CONGESTED:      25306
 WQ ROW_BUFFER_HIT:       1660  ROW_BUFFER_MISS:      16061  FULL:          0

 AVG_CONGESTED_CYCLE: 4

CPU 0 Branch Prediction Accuracy: 94.7729% MPKI: 9.72684 Average ROB Occupancy at Mispredict: 54.1758

Branch types
NOT_BRANCH: 40695383 81.3908%
BRANCH_DIRECT_JUMP: 422107 0.844214%
BRANCH_INDIRECT: 65 0.00013%
BRANCH_CONDITIONAL: 8105005 16.21%
BRANCH_DIRECT_CALL: 374913 0.749826%
BRANCH_INDIRECT_CALL: 13657 0.027314%
BRANCH_RETURN: 388556 0.777112%
BRANCH_OTHER: 0 0%

