Initialize SIGNATURE TABLE
ST_SET: 1
ST_WAY: 256
ST_TAG_BIT: 16
ST_TAG_MASK: ffff

Initialize PATTERN TABLE
PT_SET: 512
PT_WAY: 4
SIG_DELTA_BIT: 7
C_SIG_BIT: 4
C_DELTA_BIT: 4

Initialize PREFETCH FILTER
FILTER_SET: 1024

*** ChampSim Multicore Out-of-Order Simulator ***

Warmup Instructions: 50000000
Simulation Instructions: 50000000
Number of CPUs: 1
LLC sets: 2048
LLC ways: 16
Off-chip DRAM Size: 4096 MB Channels: 1 Width: 64-bit Data Rate: 3200 MT/s

CPU 0 runs /home/ykhodke/ChampSim/dpc3_traces/spec_gobmk_001.champsimtrace.xz
L1I D-JOLT instruction prefetcher has been constructed!
CPU 0 L1D next line prefetcher
Heartbeat CPU 0 instructions: 10000003 cycles: 3506789 heartbeat IPC: 2.85161 cumulative IPC: 2.85161 (Simulation time: 0 hr 2 min 45 sec) 
Heartbeat CPU 0 instructions: 20000002 cycles: 6986943 heartbeat IPC: 2.87344 cumulative IPC: 2.86248 (Simulation time: 0 hr 5 min 16 sec) 
Heartbeat CPU 0 instructions: 30000002 cycles: 10505864 heartbeat IPC: 2.84178 cumulative IPC: 2.85555 (Simulation time: 0 hr 7 min 49 sec) 
Heartbeat CPU 0 instructions: 40000001 cycles: 14024962 heartbeat IPC: 2.84164 cumulative IPC: 2.85206 (Simulation time: 0 hr 10 min 42 sec) 
Heartbeat CPU 0 instructions: 50000001 cycles: 17565046 heartbeat IPC: 2.82479 cumulative IPC: 2.84656 (Simulation time: 0 hr 13 min 11 sec) 

Warmup complete CPU 0 instructions: 50000001 cycles: 17565046 (Simulation time: 0 hr 13 min 11 sec) 

Heartbeat CPU 0 instructions: 60000000 cycles: 26306961 heartbeat IPC: 1.14391 cumulative IPC: 1.14391 (Simulation time: 0 hr 15 min 18 sec) 
Heartbeat CPU 0 instructions: 70000002 cycles: 34681762 heartbeat IPC: 1.19406 cumulative IPC: 1.16845 (Simulation time: 0 hr 17 min 58 sec) 
Heartbeat CPU 0 instructions: 80000003 cycles: 43491103 heartbeat IPC: 1.13516 cumulative IPC: 1.15714 (Simulation time: 0 hr 20 min 18 sec) 
Heartbeat CPU 0 instructions: 90000001 cycles: 51970899 heartbeat IPC: 1.17927 cumulative IPC: 1.16259 (Simulation time: 0 hr 22 min 22 sec) 
Heartbeat CPU 0 instructions: 100000003 cycles: 60764040 heartbeat IPC: 1.13725 cumulative IPC: 1.15743 (Simulation time: 0 hr 24 min 31 sec) 
Finished CPU 0 instructions: 50000002 cycles: 43198994 cumulative IPC: 1.15743 (Simulation time: 0 hr 24 min 31 sec) 

ChampSim completed all CPUs

Region of Interest Statistics

CPU 0 cumulative IPC: 1.15743 instructions: 50000002 cycles: 43198994
L1D TOTAL     ACCESS:   17974870  HIT:   17595384  MISS:     379486
L1D LOAD      ACCESS:    7206664  HIT:    7071591  MISS:     135073
L1D RFO       ACCESS:    3700559  HIT:    3595989  MISS:     104570
L1D PREFETCH  ACCESS:    7067647  HIT:    6927804  MISS:     139843
L1D WRITEBACK ACCESS:          0  HIT:          0  MISS:          0
L1D PREFETCH  REQUESTED:    7212150  ISSUED:    7129422  USEFUL:      45173  USELESS:      94676
L1D AVERAGE MISS LATENCY: 33.8819 cycles
L1I TOTAL     ACCESS:   14914716  HIT:   13083603  MISS:    1831113
L1I LOAD      ACCESS:    8980928  HIT:    8947936  MISS:      32992
L1I RFO       ACCESS:          0  HIT:          0  MISS:          0
L1I PREFETCH  ACCESS:    5933788  HIT:    4135667  MISS:    1798121
L1I WRITEBACK ACCESS:          0  HIT:          0  MISS:          0
L1I PREFETCH  REQUESTED:    6252150  ISSUED:    5997304  USEFUL:     871724  USELESS:     926334
L1I AVERAGE MISS LATENCY: 15.2171 cycles
L2C TOTAL     ACCESS:    3182880  HIT:    3053809  MISS:     129071
L2C LOAD      ACCESS:     141573  HIT:     106434  MISS:      35139
L2C RFO       ACCESS:     104217  HIT:      69492  MISS:      34725
L2C PREFETCH  ACCESS:    2797801  HIT:    2738705  MISS:      59096
L2C WRITEBACK ACCESS:     139289  HIT:     139178  MISS:        111
L2C PREFETCH  REQUESTED:    1447132  ISSUED:    1446993  USEFUL:       5053  USELESS:      54363
L2C AVERAGE MISS LATENCY: 63.756 cycles
LLC TOTAL     ACCESS:     291789  HIT:     257607  MISS:      34182
LLC LOAD      ACCESS:      35137  HIT:      27019  MISS:       8118
LLC RFO       ACCESS:      34724  HIT:      28288  MISS:       6436
LLC PREFETCH  ACCESS:     176114  HIT:     156708  MISS:      19406
LLC WRITEBACK ACCESS:      45814  HIT:      45592  MISS:        222
LLC PREFETCH  REQUESTED:          0  ISSUED:          0  USEFUL:       1241  USELESS:      17075
LLC AVERAGE MISS LATENCY: 179.228 cycles
Major fault: 0 Minor fault: 4161
CPU 0 L1D next line prefetcher final stats

DRAM Statistics
 CHANNEL 0
 RQ ROW_BUFFER_HIT:       4446  ROW_BUFFER_MISS:      29510
 DBUS_CONGESTED:      17926
 WQ ROW_BUFFER_HIT:       1460  ROW_BUFFER_MISS:      14238  FULL:          0

 AVG_CONGESTED_CYCLE: 4

CPU 0 Branch Prediction Accuracy: 94.7729% MPKI: 9.72684 Average ROB Occupancy at Mispredict: 54.399

Branch types
NOT_BRANCH: 40695385 81.3908%
BRANCH_DIRECT_JUMP: 422107 0.844214%
BRANCH_INDIRECT: 65 0.00013%
BRANCH_CONDITIONAL: 8105006 16.21%
BRANCH_DIRECT_CALL: 374913 0.749826%
BRANCH_INDIRECT_CALL: 13657 0.027314%
BRANCH_RETURN: 388556 0.777112%
BRANCH_OTHER: 0 0%

