Initialize SIGNATURE TABLE
ST_SET: 1
ST_WAY: 256
ST_TAG_BIT: 16
ST_TAG_MASK: ffff

Initialize PATTERN TABLE
PT_SET: 512
PT_WAY: 4
SIG_DELTA_BIT: 7
C_SIG_BIT: 4
C_DELTA_BIT: 4

Initialize PREFETCH FILTER
FILTER_SET: 1024

*** ChampSim Multicore Out-of-Order Simulator ***

Warmup Instructions: 50000000
Simulation Instructions: 50000000
Number of CPUs: 1
LLC sets: 2048
LLC ways: 16
Off-chip DRAM Size: 4096 MB Channels: 1 Width: 64-bit Data Rate: 3200 MT/s

CPU 0 runs /home/ykhodke/ChampSim/dpc3_traces/spec_perlbench_001.champsimtrace.xz
L1I D-JOLT instruction prefetcher has been constructed!
CPU 0 L1D next line prefetcher
Heartbeat CPU 0 instructions: 10000000 cycles: 3276014 heartbeat IPC: 3.05249 cumulative IPC: 3.05249 (Simulation time: 0 hr 2 min 58 sec) 
Heartbeat CPU 0 instructions: 20000000 cycles: 6541075 heartbeat IPC: 3.06273 cumulative IPC: 3.0576 (Simulation time: 0 hr 6 min 13 sec) 
Heartbeat CPU 0 instructions: 30000002 cycles: 9858510 heartbeat IPC: 3.01438 cumulative IPC: 3.04306 (Simulation time: 0 hr 9 min 40 sec) 
Heartbeat CPU 0 instructions: 40000002 cycles: 13114184 heartbeat IPC: 3.07156 cumulative IPC: 3.05013 (Simulation time: 0 hr 12 min 39 sec) 
Heartbeat CPU 0 instructions: 50000001 cycles: 16388347 heartbeat IPC: 3.05422 cumulative IPC: 3.05095 (Simulation time: 0 hr 15 min 12 sec) 

Warmup complete CPU 0 instructions: 50000001 cycles: 16388347 (Simulation time: 0 hr 15 min 12 sec) 

Heartbeat CPU 0 instructions: 60000001 cycles: 24726063 heartbeat IPC: 1.19937 cumulative IPC: 1.19937 (Simulation time: 0 hr 17 min 52 sec) 
Heartbeat CPU 0 instructions: 70000000 cycles: 32909396 heartbeat IPC: 1.222 cumulative IPC: 1.21058 (Simulation time: 0 hr 20 min 43 sec) 
Heartbeat CPU 0 instructions: 80000000 cycles: 41377852 heartbeat IPC: 1.18085 cumulative IPC: 1.2005 (Simulation time: 0 hr 23 min 26 sec) 
Heartbeat CPU 0 instructions: 90000000 cycles: 47137269 heartbeat IPC: 1.73629 cumulative IPC: 1.30086 (Simulation time: 0 hr 25 min 28 sec) 
Heartbeat CPU 0 instructions: 100000002 cycles: 53044879 heartbeat IPC: 1.69273 cumulative IPC: 1.36401 (Simulation time: 0 hr 27 min 7 sec) 
Finished CPU 0 instructions: 50000001 cycles: 36656532 cumulative IPC: 1.36401 (Simulation time: 0 hr 27 min 7 sec) 

ChampSim completed all CPUs

Region of Interest Statistics

CPU 0 cumulative IPC: 1.36401 instructions: 50000001 cycles: 36656532
L1D TOTAL     ACCESS:   20674696  HIT:   20259623  MISS:     415073
L1D LOAD      ACCESS:    7167381  HIT:    6953725  MISS:     213656
L1D RFO       ACCESS:    6542080  HIT:    6523549  MISS:      18531
L1D PREFETCH  ACCESS:    6965235  HIT:    6782349  MISS:     182886
L1D WRITEBACK ACCESS:          0  HIT:          0  MISS:          0
L1D PREFETCH  REQUESTED:    7183220  ISSUED:    7066514  USEFUL:      55219  USELESS:     127662
L1D AVERAGE MISS LATENCY: 59.4157 cycles
L1I TOTAL     ACCESS:   14769959  HIT:   13695151  MISS:    1074808
L1I LOAD      ACCESS:    9168032  HIT:    9111182  MISS:      56850
L1I RFO       ACCESS:          0  HIT:          0  MISS:          0
L1I PREFETCH  ACCESS:    5601927  HIT:    4583969  MISS:    1017958
L1I WRITEBACK ACCESS:          0  HIT:          0  MISS:          0
L1I PREFETCH  REQUESTED:    5761835  ISSUED:    5703108  USEFUL:     507307  USELESS:     510646
L1I AVERAGE MISS LATENCY: 16.6382 cycles
L2C TOTAL     ACCESS:    2112871  HIT:    1942155  MISS:     170716
L2C LOAD      ACCESS:     261841  HIT:     178902  MISS:      82939
L2C RFO       ACCESS:      18278  HIT:      12666  MISS:       5612
L2C PREFETCH  ACCESS:    1753794  HIT:    1672046  MISS:      81748
L2C WRITEBACK ACCESS:      78958  HIT:      78541  MISS:        417
L2C PREFETCH  REQUESTED:    1158445  ISSUED:    1158379  USEFUL:       7148  USELESS:      74687
L2C AVERAGE MISS LATENCY: 118.992 cycles
LLC TOTAL     ACCESS:     417032  HIT:     272327  MISS:     144705
LLC LOAD      ACCESS:      82937  HIT:      32150  MISS:      50787
LLC RFO       ACCESS:       5612  HIT:       2532  MISS:       3080
LLC PREFETCH  ACCESS:     302352  HIT:     211996  MISS:      90356
LLC WRITEBACK ACCESS:      26131  HIT:      25649  MISS:        482
LLC PREFETCH  REQUESTED:          0  ISSUED:          0  USEFUL:      13792  USELESS:      76766
LLC AVERAGE MISS LATENCY: 159.993 cycles
Major fault: 0 Minor fault: 6366
CPU 0 L1D next line prefetcher final stats

DRAM Statistics
 CHANNEL 0
 RQ ROW_BUFFER_HIT:      32788  ROW_BUFFER_MISS:     111434
 DBUS_CONGESTED:      56087
 WQ ROW_BUFFER_HIT:       4318  ROW_BUFFER_MISS:      13135  FULL:          0

 AVG_CONGESTED_CYCLE: 4

CPU 0 Branch Prediction Accuracy: 98.7418% MPKI: 2.47758 Average ROB Occupancy at Mispredict: 79.6267

Branch types
NOT_BRANCH: 40154100 80.3082%
BRANCH_DIRECT_JUMP: 817094 1.63419%
BRANCH_INDIRECT: 303787 0.607574%
BRANCH_CONDITIONAL: 7492103 14.9842%
BRANCH_DIRECT_CALL: 471777 0.943554%
BRANCH_INDIRECT_CALL: 144546 0.289092%
BRANCH_RETURN: 616324 1.23265%
BRANCH_OTHER: 0 0%

