Initialize SIGNATURE TABLE
ST_SET: 1
ST_WAY: 256
ST_TAG_BIT: 16
ST_TAG_MASK: ffff

Initialize PATTERN TABLE
PT_SET: 512
PT_WAY: 4
SIG_DELTA_BIT: 7
C_SIG_BIT: 4
C_DELTA_BIT: 4

Initialize PREFETCH FILTER
FILTER_SET: 1024

*** ChampSim Multicore Out-of-Order Simulator ***

Warmup Instructions: 50000000
Simulation Instructions: 50000000
Number of CPUs: 1
LLC sets: 2048
LLC ways: 16
Off-chip DRAM Size: 4096 MB Channels: 1 Width: 64-bit Data Rate: 3200 MT/s

CPU 0 runs /home/ykhodke/ChampSim/dpc3_traces/spec_gcc_003.champsimtrace.xz
LHT KB: 126.25
SCC KB: 1.56
Total KB: 127.81
CPU 0 L1D next line prefetcher
Heartbeat CPU 0 instructions: 10000001 cycles: 3484919 heartbeat IPC: 2.86951 cumulative IPC: 2.86951 (Simulation time: 0 hr 2 min 41 sec) 
Heartbeat CPU 0 instructions: 20000000 cycles: 6954294 heartbeat IPC: 2.88236 cumulative IPC: 2.87592 (Simulation time: 0 hr 5 min 20 sec) 
Heartbeat CPU 0 instructions: 30000002 cycles: 10397240 heartbeat IPC: 2.90449 cumulative IPC: 2.88538 (Simulation time: 0 hr 7 min 54 sec) 
Heartbeat CPU 0 instructions: 40000000 cycles: 13866921 heartbeat IPC: 2.88211 cumulative IPC: 2.88456 (Simulation time: 0 hr 10 min 32 sec) 
Heartbeat CPU 0 instructions: 50000001 cycles: 17179640 heartbeat IPC: 3.01867 cumulative IPC: 2.91042 (Simulation time: 0 hr 13 min 8 sec) 

Warmup complete CPU 0 instructions: 50000001 cycles: 17179640 (Simulation time: 0 hr 13 min 8 sec) 

Heartbeat CPU 0 instructions: 60000000 cycles: 57003919 heartbeat IPC: 0.251103 cumulative IPC: 0.251103 (Simulation time: 0 hr 19 min 23 sec) 
Heartbeat CPU 0 instructions: 70000000 cycles: 99609922 heartbeat IPC: 0.234709 cumulative IPC: 0.242629 (Simulation time: 0 hr 26 min 14 sec) 
Heartbeat CPU 0 instructions: 80000003 cycles: 143219534 heartbeat IPC: 0.229307 cumulative IPC: 0.23802 (Simulation time: 0 hr 30 min 22 sec) 
Heartbeat CPU 0 instructions: 90000002 cycles: 179895747 heartbeat IPC: 0.272656 cumulative IPC: 0.245827 (Simulation time: 0 hr 31 min 25 sec) 
Heartbeat CPU 0 instructions: 100000001 cycles: 226382879 heartbeat IPC: 0.215113 cumulative IPC: 0.239002 (Simulation time: 0 hr 32 min 4 sec) 
Finished CPU 0 instructions: 50000000 cycles: 209203239 cumulative IPC: 0.239002 (Simulation time: 0 hr 32 min 4 sec) 

ChampSim completed all CPUs

Region of Interest Statistics

CPU 0 cumulative IPC: 0.239002 instructions: 50000000 cycles: 209203239
L1D TOTAL     ACCESS:   16889611  HIT:   11165236  MISS:    5724375
L1D LOAD      ACCESS:    4585678  HIT:    4202744  MISS:     382934
L1D RFO       ACCESS:    8207671  HIT:    3155885  MISS:    5051786
L1D PREFETCH  ACCESS:    4096262  HIT:    3806607  MISS:     289655
L1D WRITEBACK ACCESS:          0  HIT:          0  MISS:          0
L1D PREFETCH  REQUESTED:    4603928  ISSUED:    4544604  USEFUL:     152290  USELESS:     137545
L1D AVERAGE MISS LATENCY: 503.154 cycles
L1I TOTAL     ACCESS:   24813243  HIT:   22860892  MISS:    1952351
L1I LOAD      ACCESS:   11266122  HIT:   11072060  MISS:     194062
L1I RFO       ACCESS:          0  HIT:          0  MISS:          0
L1I PREFETCH  ACCESS:   13547121  HIT:   11788832  MISS:    1758289
L1I WRITEBACK ACCESS:          0  HIT:          0  MISS:          0
L1I PREFETCH  REQUESTED:   15174197  ISSUED:   15174155  USEFUL:     752705  USELESS:    1005474
L1I AVERAGE MISS LATENCY: 32.8105 cycles
L2C TOTAL     ACCESS:   13384096  HIT:    7276525  MISS:    6107571
L2C LOAD      ACCESS:     250771  HIT:      75650  MISS:     175121
L2C RFO       ACCESS:    5049958  HIT:       6464  MISS:    5043494
L2C PREFETCH  ACCESS:    2925521  HIT:    2036840  MISS:     888681
L2C WRITEBACK ACCESS:    5157846  HIT:    5157571  MISS:        275
L2C PREFETCH  REQUESTED:    2215586  ISSUED:    2215256  USEFUL:      30286  USELESS:     855495
L2C AVERAGE MISS LATENCY: 467.329 cycles
LLC TOTAL     ACCESS:   12060928  HIT:    7418737  MISS:    4642191
LLC LOAD      ACCESS:     175089  HIT:     133261  MISS:      41828
LLC RFO       ACCESS:    5043494  HIT:     665558  MISS:    4377936
LLC PREFETCH  ACCESS:    1708674  HIT:    1486247  MISS:     222427
LLC WRITEBACK ACCESS:    5133671  HIT:    5133671  MISS:          0
LLC PREFETCH  REQUESTED:          0  ISSUED:          0  USEFUL:      11727  USELESS:     210344
LLC AVERAGE MISS LATENCY: 581.986 cycles
Major fault: 0 Minor fault: 2822
CPU 0 L1D next line prefetcher final stats

DRAM Statistics
 CHANNEL 0
 RQ ROW_BUFFER_HIT:    1378603  ROW_BUFFER_MISS:    3263504
 DBUS_CONGESTED:    8111224
 WQ ROW_BUFFER_HIT:    1177034  ROW_BUFFER_MISS:    3228633  FULL:          0

 AVG_CONGESTED_CYCLE: 6

CPU 0 Branch Prediction Accuracy: 99.665% MPKI: 0.78342 Average ROB Occupancy at Mispredict: 116.182

Branch types
NOT_BRANCH: 38305861 76.6117%
BRANCH_DIRECT_JUMP: 384281 0.768562%
BRANCH_INDIRECT: 71949 0.143898%
BRANCH_CONDITIONAL: 9879826 19.7597%
BRANCH_DIRECT_CALL: 650586 1.30117%
BRANCH_INDIRECT_CALL: 28456 0.056912%
BRANCH_RETURN: 679046 1.35809%
BRANCH_OTHER: 0 0%

