Initialize SIGNATURE TABLE
ST_SET: 1
ST_WAY: 256
ST_TAG_BIT: 16
ST_TAG_MASK: ffff

Initialize PATTERN TABLE
PT_SET: 512
PT_WAY: 4
SIG_DELTA_BIT: 7
C_SIG_BIT: 4
C_DELTA_BIT: 4

Initialize PREFETCH FILTER
FILTER_SET: 1024

*** ChampSim Multicore Out-of-Order Simulator ***

Warmup Instructions: 50000000
Simulation Instructions: 50000000
Number of CPUs: 1
LLC sets: 2048
LLC ways: 16
Off-chip DRAM Size: 4096 MB Channels: 1 Width: 64-bit Data Rate: 3200 MT/s

CPU 0 runs /home/ykhodke/ChampSim/dpc3_traces/spec_perlbench_001.champsimtrace.xz
L1I D-JOLT instruction prefetcher has been constructed!
CPU 0 L1D next line prefetcher
Heartbeat CPU 0 instructions: 10000000 cycles: 3276191 heartbeat IPC: 3.05233 cumulative IPC: 3.05233 (Simulation time: 0 hr 2 min 36 sec) 
Heartbeat CPU 0 instructions: 20000000 cycles: 6542124 heartbeat IPC: 3.06191 cumulative IPC: 3.05711 (Simulation time: 0 hr 5 min 5 sec) 
Heartbeat CPU 0 instructions: 30000002 cycles: 9860598 heartbeat IPC: 3.01343 cumulative IPC: 3.04241 (Simulation time: 0 hr 7 min 46 sec) 
Heartbeat CPU 0 instructions: 40000002 cycles: 13117162 heartbeat IPC: 3.07072 cumulative IPC: 3.04944 (Simulation time: 0 hr 10 min 16 sec) 
Heartbeat CPU 0 instructions: 50000001 cycles: 16391837 heartbeat IPC: 3.05374 cumulative IPC: 3.0503 (Simulation time: 0 hr 13 min 11 sec) 

Warmup complete CPU 0 instructions: 50000001 cycles: 16391837 (Simulation time: 0 hr 13 min 11 sec) 

Heartbeat CPU 0 instructions: 60000001 cycles: 24684999 heartbeat IPC: 1.20581 cumulative IPC: 1.20581 (Simulation time: 0 hr 16 min 13 sec) 
Heartbeat CPU 0 instructions: 70000003 cycles: 32796551 heartbeat IPC: 1.23281 cumulative IPC: 1.21916 (Simulation time: 0 hr 19 min 2 sec) 
Heartbeat CPU 0 instructions: 80000000 cycles: 41245355 heartbeat IPC: 1.1836 cumulative IPC: 1.20707 (Simulation time: 0 hr 21 min 40 sec) 
Heartbeat CPU 0 instructions: 90000000 cycles: 47015675 heartbeat IPC: 1.73301 cumulative IPC: 1.30617 (Simulation time: 0 hr 23 min 45 sec) 
Heartbeat CPU 0 instructions: 100000002 cycles: 52934628 heartbeat IPC: 1.68949 cumulative IPC: 1.36826 (Simulation time: 0 hr 25 min 49 sec) 
Finished CPU 0 instructions: 50000001 cycles: 36542791 cumulative IPC: 1.36826 (Simulation time: 0 hr 25 min 49 sec) 

ChampSim completed all CPUs

Region of Interest Statistics

CPU 0 cumulative IPC: 1.36826 instructions: 50000001 cycles: 36542791
L1D TOTAL     ACCESS:   20679567  HIT:   20264481  MISS:     415086
L1D LOAD      ACCESS:    7169657  HIT:    6955849  MISS:     213808
L1D RFO       ACCESS:    6542237  HIT:    6523728  MISS:      18509
L1D PREFETCH  ACCESS:    6967673  HIT:    6784904  MISS:     182769
L1D WRITEBACK ACCESS:          0  HIT:          0  MISS:          0
L1D PREFETCH  REQUESTED:    7185511  ISSUED:    7069070  USEFUL:      55093  USELESS:     127671
L1D AVERAGE MISS LATENCY: 59.9251 cycles
L1I TOTAL     ACCESS:   17414134  HIT:   15857831  MISS:    1556303
L1I LOAD      ACCESS:    9185863  HIT:    9138145  MISS:      47718
L1I RFO       ACCESS:          0  HIT:          0  MISS:          0
L1I PREFETCH  ACCESS:    8228271  HIT:    6719686  MISS:    1508585
L1I WRITEBACK ACCESS:          0  HIT:          0  MISS:          0
L1I PREFETCH  REQUESTED:    8798742  ISSUED:    8384935  USEFUL:     613217  USELESS:     895383
L1I AVERAGE MISS LATENCY: 16.2729 cycles
L2C TOTAL     ACCESS:    2760165  HIT:    2586253  MISS:     173912
L2C LOAD      ACCESS:     252665  HIT:     171541  MISS:      81124
L2C RFO       ACCESS:      18262  HIT:      12499  MISS:       5763
L2C PREFETCH  ACCESS:    2410274  HIT:    2323733  MISS:      86541
L2C WRITEBACK ACCESS:      78964  HIT:      78480  MISS:        484
L2C PREFETCH  REQUESTED:    1455147  ISSUED:    1454978  USEFUL:       6983  USELESS:      79592
L2C AVERAGE MISS LATENCY: 118.369 cycles
LLC TOTAL     ACCESS:     450826  HIT:     308050  MISS:     142776
LLC LOAD      ACCESS:      81121  HIT:      30879  MISS:      50242
LLC RFO       ACCESS:       5763  HIT:       2666  MISS:       3097
LLC PREFETCH  ACCESS:     337301  HIT:     248305  MISS:      88996
LLC WRITEBACK ACCESS:      26641  HIT:      26200  MISS:        441
LLC PREFETCH  REQUESTED:          0  ISSUED:          0  USEFUL:      12547  USELESS:      76903
LLC AVERAGE MISS LATENCY: 160.213 cycles
Major fault: 0 Minor fault: 6365
CPU 0 L1D next line prefetcher final stats

DRAM Statistics
 CHANNEL 0
 RQ ROW_BUFFER_HIT:      32472  ROW_BUFFER_MISS:     109863
 DBUS_CONGESTED:      54753
 WQ ROW_BUFFER_HIT:       4534  ROW_BUFFER_MISS:      12718  FULL:          0

 AVG_CONGESTED_CYCLE: 4

CPU 0 Branch Prediction Accuracy: 98.7418% MPKI: 2.47758 Average ROB Occupancy at Mispredict: 80.1769

Branch types
NOT_BRANCH: 40154100 80.3082%
BRANCH_DIRECT_JUMP: 817094 1.63419%
BRANCH_INDIRECT: 303787 0.607574%
BRANCH_CONDITIONAL: 7492103 14.9842%
BRANCH_DIRECT_CALL: 471777 0.943554%
BRANCH_INDIRECT_CALL: 144546 0.289092%
BRANCH_RETURN: 616324 1.23265%
BRANCH_OTHER: 0 0%

