Initialize SIGNATURE TABLE
ST_SET: 1
ST_WAY: 256
ST_TAG_BIT: 16
ST_TAG_MASK: ffff

Initialize PATTERN TABLE
PT_SET: 512
PT_WAY: 4
SIG_DELTA_BIT: 7
C_SIG_BIT: 4
C_DELTA_BIT: 4

Initialize PREFETCH FILTER
FILTER_SET: 1024

*** ChampSim Multicore Out-of-Order Simulator ***

Warmup Instructions: 50000000
Simulation Instructions: 50000000
Number of CPUs: 1
LLC sets: 2048
LLC ways: 16
Off-chip DRAM Size: 4096 MB Channels: 1 Width: 64-bit Data Rate: 3200 MT/s

CPU 0 runs /home/ykhodke/ChampSim/dpc3_traces/spec_gcc_003.champsimtrace.xz
LHT KB: 126.25
SCC KB: 1.56
Total KB: 127.81
CPU 0 L1D next line prefetcher
Heartbeat CPU 0 instructions: 10000001 cycles: 3480760 heartbeat IPC: 2.87294 cumulative IPC: 2.87294 (Simulation time: 0 hr 2 min 48 sec) 
Heartbeat CPU 0 instructions: 20000000 cycles: 6955001 heartbeat IPC: 2.87833 cumulative IPC: 2.87563 (Simulation time: 0 hr 5 min 31 sec) 
Heartbeat CPU 0 instructions: 30000002 cycles: 10399778 heartbeat IPC: 2.90295 cumulative IPC: 2.88468 (Simulation time: 0 hr 8 min 9 sec) 
Heartbeat CPU 0 instructions: 40000000 cycles: 13867818 heartbeat IPC: 2.88347 cumulative IPC: 2.88438 (Simulation time: 0 hr 11 min 1 sec) 
Heartbeat CPU 0 instructions: 50000001 cycles: 17177118 heartbeat IPC: 3.02179 cumulative IPC: 2.91085 (Simulation time: 0 hr 13 min 35 sec) 

Warmup complete CPU 0 instructions: 50000001 cycles: 17177118 (Simulation time: 0 hr 13 min 35 sec) 

Heartbeat CPU 0 instructions: 60000000 cycles: 56865427 heartbeat IPC: 0.251963 cumulative IPC: 0.251963 (Simulation time: 0 hr 19 min 25 sec) 
Heartbeat CPU 0 instructions: 70000000 cycles: 99230834 heartbeat IPC: 0.236042 cumulative IPC: 0.243743 (Simulation time: 0 hr 25 min 42 sec) 
Heartbeat CPU 0 instructions: 80000003 cycles: 142550482 heartbeat IPC: 0.230842 cumulative IPC: 0.239285 (Simulation time: 0 hr 29 min 30 sec) 
Heartbeat CPU 0 instructions: 90000002 cycles: 179083273 heartbeat IPC: 0.273727 cumulative IPC: 0.247057 (Simulation time: 0 hr 30 min 31 sec) 
Heartbeat CPU 0 instructions: 100000001 cycles: 225134145 heartbeat IPC: 0.217151 cumulative IPC: 0.240434 (Simulation time: 0 hr 31 min 10 sec) 
Finished CPU 0 instructions: 50000000 cycles: 207957027 cumulative IPC: 0.240434 (Simulation time: 0 hr 31 min 10 sec) 

ChampSim completed all CPUs

Region of Interest Statistics

CPU 0 cumulative IPC: 0.240434 instructions: 50000000 cycles: 207957027
L1D TOTAL     ACCESS:   16891401  HIT:   11167010  MISS:    5724391
L1D LOAD      ACCESS:    4586236  HIT:    4203275  MISS:     382961
L1D RFO       ACCESS:    8208108  HIT:    3156321  MISS:    5051787
L1D PREFETCH  ACCESS:    4097057  HIT:    3807414  MISS:     289643
L1D WRITEBACK ACCESS:          0  HIT:          0  MISS:          0
L1D PREFETCH  REQUESTED:    4604557  ISSUED:    4545513  USEFUL:     152259  USELESS:     137564
L1D AVERAGE MISS LATENCY: 498.982 cycles
L1I TOTAL     ACCESS:   23985514  HIT:   22318029  MISS:    1667485
L1I LOAD      ACCESS:   11257604  HIT:   11053000  MISS:     204604
L1I RFO       ACCESS:          0  HIT:          0  MISS:          0
L1I PREFETCH  ACCESS:   12727910  HIT:   11265029  MISS:    1462881
L1I WRITEBACK ACCESS:          0  HIT:          0  MISS:          0
L1I PREFETCH  REQUESTED:   14201805  ISSUED:   14201789  USEFUL:     701925  USELESS:     760859
L1I AVERAGE MISS LATENCY: 35.9785 cycles
L2C TOTAL     ACCESS:   13026438  HIT:    6931440  MISS:    6094998
L2C LOAD      ACCESS:     241935  HIT:      69661  MISS:     172274
L2C RFO       ACCESS:    5049974  HIT:       6474  MISS:    5043500
L2C PREFETCH  ACCESS:    2576683  HIT:    1697713  MISS:     878970
L2C WRITEBACK ACCESS:    5157846  HIT:    5157592  MISS:        254
L2C PREFETCH  REQUESTED:    2041740  ISSUED:    2041513  USEFUL:      26871  USELESS:     849148
L2C AVERAGE MISS LATENCY: 464.658 cycles
LLC TOTAL     ACCESS:   12006634  HIT:    7391946  MISS:    4614688
LLC LOAD      ACCESS:     172252  HIT:     130830  MISS:      41422
LLC RFO       ACCESS:    5043500  HIT:     699125  MISS:    4344375
LLC PREFETCH  ACCESS:    1657147  HIT:    1428256  MISS:     228891
LLC WRITEBACK ACCESS:    5133735  HIT:    5133735  MISS:          0
LLC PREFETCH  REQUESTED:          0  ISSUED:          0  USEFUL:      11327  USELESS:     217239
LLC AVERAGE MISS LATENCY: 580.858 cycles
Major fault: 0 Minor fault: 2822
CPU 0 L1D next line prefetcher final stats

DRAM Statistics
 CHANNEL 0
 RQ ROW_BUFFER_HIT:    1375132  ROW_BUFFER_MISS:    3239460
 DBUS_CONGESTED:    8046654
 WQ ROW_BUFFER_HIT:    1165387  ROW_BUFFER_MISS:    3207128  FULL:          0

 AVG_CONGESTED_CYCLE: 6

CPU 0 Branch Prediction Accuracy: 99.665% MPKI: 0.78342 Average ROB Occupancy at Mispredict: 115.071

Branch types
NOT_BRANCH: 38305861 76.6117%
BRANCH_DIRECT_JUMP: 384281 0.768562%
BRANCH_INDIRECT: 71949 0.143898%
BRANCH_CONDITIONAL: 9879826 19.7597%
BRANCH_DIRECT_CALL: 650586 1.30117%
BRANCH_INDIRECT_CALL: 28456 0.056912%
BRANCH_RETURN: 679046 1.35809%
BRANCH_OTHER: 0 0%

