Initialize SIGNATURE TABLE
ST_SET: 1
ST_WAY: 256
ST_TAG_BIT: 16
ST_TAG_MASK: ffff

Initialize PATTERN TABLE
PT_SET: 512
PT_WAY: 4
SIG_DELTA_BIT: 7
C_SIG_BIT: 4
C_DELTA_BIT: 4

Initialize PREFETCH FILTER
FILTER_SET: 1024

*** ChampSim Multicore Out-of-Order Simulator ***

Warmup Instructions: 50000000
Simulation Instructions: 50000000
Number of CPUs: 1
LLC sets: 2048
LLC ways: 16
Off-chip DRAM Size: 4096 MB Channels: 1 Width: 64-bit Data Rate: 3200 MT/s

CPU 0 runs /home/ykhodke/ChampSim/dpc3_traces/spec_gobmk_001.champsimtrace.xz
LHT KB: 63.12
SCC KB: 1.56
Total KB: 64.69
CPU 0 L1D next line prefetcher
Heartbeat CPU 0 instructions: 10000003 cycles: 3508715 heartbeat IPC: 2.85005 cumulative IPC: 2.85005 (Simulation time: 0 hr 2 min 34 sec) 
Heartbeat CPU 0 instructions: 20000002 cycles: 6989381 heartbeat IPC: 2.87301 cumulative IPC: 2.86148 (Simulation time: 0 hr 5 min 17 sec) 
Heartbeat CPU 0 instructions: 30000002 cycles: 10508908 heartbeat IPC: 2.84129 cumulative IPC: 2.85472 (Simulation time: 0 hr 7 min 56 sec) 
Heartbeat CPU 0 instructions: 40000001 cycles: 14028334 heartbeat IPC: 2.84137 cumulative IPC: 2.85137 (Simulation time: 0 hr 10 min 33 sec) 
Heartbeat CPU 0 instructions: 50000001 cycles: 17568810 heartbeat IPC: 2.82448 cumulative IPC: 2.84595 (Simulation time: 0 hr 13 min 11 sec) 

Warmup complete CPU 0 instructions: 50000001 cycles: 17568810 (Simulation time: 0 hr 13 min 11 sec) 

Heartbeat CPU 0 instructions: 60000000 cycles: 26324128 heartbeat IPC: 1.14216 cumulative IPC: 1.14216 (Simulation time: 0 hr 15 min 30 sec) 
Heartbeat CPU 0 instructions: 70000002 cycles: 34727193 heartbeat IPC: 1.19004 cumulative IPC: 1.16561 (Simulation time: 0 hr 17 min 28 sec) 
Heartbeat CPU 0 instructions: 80000003 cycles: 43550265 heartbeat IPC: 1.13339 cumulative IPC: 1.15467 (Simulation time: 0 hr 19 min 24 sec) 
Heartbeat CPU 0 instructions: 90000001 cycles: 52051512 heartbeat IPC: 1.1763 cumulative IPC: 1.16 (Simulation time: 0 hr 21 min 15 sec) 
Heartbeat CPU 0 instructions: 100000003 cycles: 60862024 heartbeat IPC: 1.13501 cumulative IPC: 1.15492 (Simulation time: 0 hr 23 min 13 sec) 
Finished CPU 0 instructions: 50000002 cycles: 43293214 cumulative IPC: 1.15492 (Simulation time: 0 hr 23 min 13 sec) 

ChampSim completed all CPUs

Region of Interest Statistics

CPU 0 cumulative IPC: 1.15492 instructions: 50000002 cycles: 43293214
L1D TOTAL     ACCESS:   17991545  HIT:   17611984  MISS:     379561
L1D LOAD      ACCESS:    7214501  HIT:    7079096  MISS:     135405
L1D RFO       ACCESS:    3701913  HIT:    3597354  MISS:     104559
L1D PREFETCH  ACCESS:    7075131  HIT:    6935534  MISS:     139597
L1D WRITEBACK ACCESS:          0  HIT:          0  MISS:          0
L1D PREFETCH  REQUESTED:    7219992  ISSUED:    7137177  USEFUL:      44864  USELESS:      94738
L1D AVERAGE MISS LATENCY: 33.0106 cycles
L1I TOTAL     ACCESS:   20878041  HIT:   19368045  MISS:    1509996
L1I LOAD      ACCESS:    8958999  HIT:    8863999  MISS:      95000
L1I RFO       ACCESS:          0  HIT:          0  MISS:          0
L1I PREFETCH  ACCESS:   11919042  HIT:   10504046  MISS:    1414996
L1I WRITEBACK ACCESS:          0  HIT:          0  MISS:          0
L1I PREFETCH  REQUESTED:   13234917  ISSUED:   13234917  USEFUL:     703286  USELESS:     711671
L1I AVERAGE MISS LATENCY: 14.0536 cycles
L2C TOTAL     ACCESS:    2645859  HIT:    2518610  MISS:     127249
L2C LOAD      ACCESS:     128503  HIT:      94377  MISS:      34126
L2C RFO       ACCESS:     104208  HIT:      68875  MISS:      35333
L2C PREFETCH  ACCESS:    2273851  HIT:    2216133  MISS:      57718
L2C WRITEBACK ACCESS:     139297  HIT:     139225  MISS:         72
L2C PREFETCH  REQUESTED:    1084184  ISSUED:    1084138  USEFUL:       4160  USELESS:      53832
L2C AVERAGE MISS LATENCY: 62.2896 cycles
LLC TOTAL     ACCESS:     273440  HIT:     241405  MISS:      32035
LLC LOAD      ACCESS:      34124  HIT:      26058  MISS:       8066
LLC RFO       ACCESS:      35333  HIT:      30142  MISS:       5191
LLC PREFETCH  ACCESS:     157731  HIT:     139168  MISS:      18563
LLC WRITEBACK ACCESS:      46252  HIT:      46037  MISS:        215
LLC PREFETCH  REQUESTED:          0  ISSUED:          0  USEFUL:       1168  USELESS:      16375
LLC AVERAGE MISS LATENCY: 177.406 cycles
Major fault: 0 Minor fault: 4165
CPU 0 L1D next line prefetcher final stats

DRAM Statistics
 CHANNEL 0
 RQ ROW_BUFFER_HIT:       3657  ROW_BUFFER_MISS:      28163
 DBUS_CONGESTED:      16986
 WQ ROW_BUFFER_HIT:       1067  ROW_BUFFER_MISS:      13369  FULL:          0

 AVG_CONGESTED_CYCLE: 4

CPU 0 Branch Prediction Accuracy: 94.7729% MPKI: 9.72684 Average ROB Occupancy at Mispredict: 54.116

Branch types
NOT_BRANCH: 40695380 81.3908%
BRANCH_DIRECT_JUMP: 422107 0.844214%
BRANCH_INDIRECT: 65 0.00013%
BRANCH_CONDITIONAL: 8105005 16.21%
BRANCH_DIRECT_CALL: 374913 0.749826%
BRANCH_INDIRECT_CALL: 13657 0.027314%
BRANCH_RETURN: 388556 0.777112%
BRANCH_OTHER: 0 0%

