Initialize SIGNATURE TABLE
ST_SET: 1
ST_WAY: 256
ST_TAG_BIT: 16
ST_TAG_MASK: ffff

Initialize PATTERN TABLE
PT_SET: 512
PT_WAY: 4
SIG_DELTA_BIT: 7
C_SIG_BIT: 4
C_DELTA_BIT: 4

Initialize PREFETCH FILTER
FILTER_SET: 1024

*** ChampSim Multicore Out-of-Order Simulator ***

Warmup Instructions: 50000000
Simulation Instructions: 50000000
Number of CPUs: 1
LLC sets: 2048
LLC ways: 16
Off-chip DRAM Size: 4096 MB Channels: 1 Width: 64-bit Data Rate: 3200 MT/s

CPU 0 runs /home/ykhodke/ChampSim/dpc3_traces/spec_gobmk_001.champsimtrace.xz
L1I D-JOLT instruction prefetcher has been constructed!
CPU 0 L1D next line prefetcher
Heartbeat CPU 0 instructions: 10000003 cycles: 3507420 heartbeat IPC: 2.8511 cumulative IPC: 2.8511 (Simulation time: 0 hr 2 min 27 sec) 
Heartbeat CPU 0 instructions: 20000002 cycles: 6987651 heartbeat IPC: 2.87337 cumulative IPC: 2.86219 (Simulation time: 0 hr 5 min 3 sec) 
Heartbeat CPU 0 instructions: 30000002 cycles: 10506494 heartbeat IPC: 2.84184 cumulative IPC: 2.85538 (Simulation time: 0 hr 7 min 27 sec) 
Heartbeat CPU 0 instructions: 40000001 cycles: 14025487 heartbeat IPC: 2.84172 cumulative IPC: 2.85195 (Simulation time: 0 hr 9 min 45 sec) 
Heartbeat CPU 0 instructions: 50000001 cycles: 17565686 heartbeat IPC: 2.8247 cumulative IPC: 2.84646 (Simulation time: 0 hr 12 min 20 sec) 

Warmup complete CPU 0 instructions: 50000001 cycles: 17565686 (Simulation time: 0 hr 12 min 20 sec) 

Heartbeat CPU 0 instructions: 60000000 cycles: 26330084 heartbeat IPC: 1.14098 cumulative IPC: 1.14098 (Simulation time: 0 hr 14 min 28 sec) 
Heartbeat CPU 0 instructions: 70000002 cycles: 34726370 heartbeat IPC: 1.191 cumulative IPC: 1.16545 (Simulation time: 0 hr 16 min 26 sec) 
Heartbeat CPU 0 instructions: 80000003 cycles: 43547873 heartbeat IPC: 1.13359 cumulative IPC: 1.15464 (Simulation time: 0 hr 18 min 40 sec) 
Heartbeat CPU 0 instructions: 90000001 cycles: 52032152 heartbeat IPC: 1.17865 cumulative IPC: 1.16055 (Simulation time: 0 hr 20 min 42 sec) 
Heartbeat CPU 0 instructions: 100000003 cycles: 60839464 heartbeat IPC: 1.13542 cumulative IPC: 1.15543 (Simulation time: 0 hr 22 min 36 sec) 
Finished CPU 0 instructions: 50000002 cycles: 43273778 cumulative IPC: 1.15543 (Simulation time: 0 hr 22 min 36 sec) 

ChampSim completed all CPUs

Region of Interest Statistics

CPU 0 cumulative IPC: 1.15543 instructions: 50000002 cycles: 43273778
L1D TOTAL     ACCESS:   17974567  HIT:   17595053  MISS:     379514
L1D LOAD      ACCESS:    7206432  HIT:    7071004  MISS:     135428
L1D RFO       ACCESS:    3700522  HIT:    3595970  MISS:     104552
L1D PREFETCH  ACCESS:    7067613  HIT:    6928079  MISS:     139534
L1D WRITEBACK ACCESS:          0  HIT:          0  MISS:          0
L1D PREFETCH  REQUESTED:    7211795  ISSUED:    7129090  USEFUL:      44848  USELESS:      94692
L1D AVERAGE MISS LATENCY: 33.4346 cycles
L1I TOTAL     ACCESS:   13668133  HIT:   12346611  MISS:    1321522
L1I LOAD      ACCESS:    8962392  HIT:    8902730  MISS:      59662
L1I RFO       ACCESS:          0  HIT:          0  MISS:          0
L1I PREFETCH  ACCESS:    4705741  HIT:    3443881  MISS:    1261860
L1I WRITEBACK ACCESS:          0  HIT:          0  MISS:          0
L1I PREFETCH  REQUESTED:    4882757  ISSUED:    4785600  USEFUL:     704327  USELESS:     557493
L1I AVERAGE MISS LATENCY: 15.0503 cycles
L2C TOTAL     ACCESS:    2493803  HIT:    2366982  MISS:     126821
L2C LOAD      ACCESS:     148873  HIT:     113180  MISS:      35693
L2C RFO       ACCESS:     104189  HIT:      70010  MISS:      34179
L2C PREFETCH  ACCESS:    2101446  HIT:    2044577  MISS:      56869
L2C WRITEBACK ACCESS:     139295  HIT:     139215  MISS:         80
L2C PREFETCH  REQUESTED:    1156625  ISSUED:    1156562  USEFUL:       5242  USELESS:      51940
L2C AVERAGE MISS LATENCY: 63.4258 cycles
LLC TOTAL     ACCESS:     270530  HIT:     236288  MISS:      34242
LLC LOAD      ACCESS:      35689  HIT:      27518  MISS:       8171
LLC RFO       ACCESS:      34179  HIT:      28053  MISS:       6126
LLC PREFETCH  ACCESS:     155515  HIT:     135791  MISS:      19724
LLC WRITEBACK ACCESS:      45147  HIT:      44926  MISS:        221
LLC PREFETCH  REQUESTED:          0  ISSUED:          0  USEFUL:       1302  USELESS:      17191
LLC AVERAGE MISS LATENCY: 177.777 cycles
Major fault: 0 Minor fault: 4162
CPU 0 L1D next line prefetcher final stats

DRAM Statistics
 CHANNEL 0
 RQ ROW_BUFFER_HIT:       4333  ROW_BUFFER_MISS:      29687
 DBUS_CONGESTED:      18664
 WQ ROW_BUFFER_HIT:       1388  ROW_BUFFER_MISS:      14142  FULL:          0

 AVG_CONGESTED_CYCLE: 4

CPU 0 Branch Prediction Accuracy: 94.7729% MPKI: 9.72684 Average ROB Occupancy at Mispredict: 54.1144

Branch types
NOT_BRANCH: 40695388 81.3908%
BRANCH_DIRECT_JUMP: 422107 0.844214%
BRANCH_INDIRECT: 65 0.00013%
BRANCH_CONDITIONAL: 8105007 16.21%
BRANCH_DIRECT_CALL: 374913 0.749826%
BRANCH_INDIRECT_CALL: 13657 0.027314%
BRANCH_RETURN: 388556 0.777112%
BRANCH_OTHER: 0 0%

