Initialize SIGNATURE TABLE
ST_SET: 1
ST_WAY: 256
ST_TAG_BIT: 16
ST_TAG_MASK: ffff

Initialize PATTERN TABLE
PT_SET: 512
PT_WAY: 4
SIG_DELTA_BIT: 7
C_SIG_BIT: 4
C_DELTA_BIT: 4

Initialize PREFETCH FILTER
FILTER_SET: 1024

*** ChampSim Multicore Out-of-Order Simulator ***

Warmup Instructions: 50000000
Simulation Instructions: 50000000
Number of CPUs: 1
LLC sets: 2048
LLC ways: 16
Off-chip DRAM Size: 4096 MB Channels: 1 Width: 64-bit Data Rate: 3200 MT/s

CPU 0 runs /home/ykhodke/ChampSim/dpc3_traces/spec_gcc_003.champsimtrace.xz
L1I D-JOLT instruction prefetcher has been constructed!
CPU 0 L1D next line prefetcher
Heartbeat CPU 0 instructions: 10000001 cycles: 3483130 heartbeat IPC: 2.87098 cumulative IPC: 2.87098 (Simulation time: 0 hr 3 min 3 sec) 
Heartbeat CPU 0 instructions: 20000000 cycles: 6961730 heartbeat IPC: 2.87472 cumulative IPC: 2.87285 (Simulation time: 0 hr 5 min 59 sec) 
Heartbeat CPU 0 instructions: 30000002 cycles: 10404927 heartbeat IPC: 2.90428 cumulative IPC: 2.88325 (Simulation time: 0 hr 8 min 38 sec) 
Heartbeat CPU 0 instructions: 40000000 cycles: 13869169 heartbeat IPC: 2.88663 cumulative IPC: 2.88409 (Simulation time: 0 hr 11 min 25 sec) 
Heartbeat CPU 0 instructions: 50000001 cycles: 17177587 heartbeat IPC: 3.02259 cumulative IPC: 2.91077 (Simulation time: 0 hr 14 min 11 sec) 

Warmup complete CPU 0 instructions: 50000001 cycles: 17177587 (Simulation time: 0 hr 14 min 11 sec) 

Heartbeat CPU 0 instructions: 60000000 cycles: 56795549 heartbeat IPC: 0.252411 cumulative IPC: 0.252411 (Simulation time: 0 hr 20 min 22 sec) 
Heartbeat CPU 0 instructions: 70000000 cycles: 99386519 heartbeat IPC: 0.234792 cumulative IPC: 0.243283 (Simulation time: 0 hr 25 min 48 sec) 
Heartbeat CPU 0 instructions: 80000003 cycles: 142990454 heartbeat IPC: 0.229337 cumulative IPC: 0.238449 (Simulation time: 0 hr 29 min 38 sec) 
Heartbeat CPU 0 instructions: 90000002 cycles: 179929249 heartbeat IPC: 0.270718 cumulative IPC: 0.245773 (Simulation time: 0 hr 30 min 34 sec) 
Heartbeat CPU 0 instructions: 100000001 cycles: 226322188 heartbeat IPC: 0.21555 cumulative IPC: 0.239069 (Simulation time: 0 hr 31 min 11 sec) 
Finished CPU 0 instructions: 50000000 cycles: 209144601 cumulative IPC: 0.239069 (Simulation time: 0 hr 31 min 11 sec) 

ChampSim completed all CPUs

Region of Interest Statistics

CPU 0 cumulative IPC: 0.239069 instructions: 50000000 cycles: 209144601
L1D TOTAL     ACCESS:   16800154  HIT:   11075904  MISS:    5724250
L1D LOAD      ACCESS:    4544261  HIT:    4160841  MISS:     383420
L1D RFO       ACCESS:    8202054  HIT:    3150384  MISS:    5051670
L1D PREFETCH  ACCESS:    4053839  HIT:    3764679  MISS:     289160
L1D WRITEBACK ACCESS:          0  HIT:          0  MISS:          0
L1D PREFETCH  REQUESTED:    4561479  ISSUED:    4501480  USEFUL:     151842  USELESS:     137498
L1D AVERAGE MISS LATENCY: 498.978 cycles
L1I TOTAL     ACCESS:   15470295  HIT:   14211056  MISS:    1259239
L1I LOAD      ACCESS:   11282712  HIT:   11220445  MISS:      62267
L1I RFO       ACCESS:          0  HIT:          0  MISS:          0
L1I PREFETCH  ACCESS:    4187583  HIT:    2990611  MISS:    1196972
L1I WRITEBACK ACCESS:          0  HIT:          0  MISS:          0
L1I PREFETCH  REQUESTED:    4690310  ISSUED:    4501029  USEFUL:     779532  USELESS:     417447
L1I AVERAGE MISS LATENCY: 65.3443 cycles
L2C TOTAL     ACCESS:   12522563  HIT:    6437892  MISS:    6084671
L2C LOAD      ACCESS:     233040  HIT:      63125  MISS:     169915
L2C RFO       ACCESS:    5049811  HIT:       6441  MISS:    5043370
L2C PREFETCH  ACCESS:    2081842  HIT:    1211041  MISS:     870801
L2C WRITEBACK ACCESS:    5157870  HIT:    5157285  MISS:        585
L2C PREFETCH  REQUESTED:    1957912  ISSUED:    1957853  USEFUL:      24486  USELESS:     843425
L2C AVERAGE MISS LATENCY: 469.832 cycles
LLC TOTAL     ACCESS:   11980847  HIT:    7236719  MISS:    4744128
LLC LOAD      ACCESS:     169877  HIT:     127228  MISS:      42649
LLC RFO       ACCESS:    5043370  HIT:     650754  MISS:    4392616
LLC PREFETCH  ACCESS:    1633844  HIT:    1324981  MISS:     308863
LLC WRITEBACK ACCESS:    5133756  HIT:    5133756  MISS:          0
LLC PREFETCH  REQUESTED:          0  ISSUED:          0  USEFUL:      11487  USELESS:     297206
LLC AVERAGE MISS LATENCY: 574.431 cycles
Major fault: 0 Minor fault: 2819
CPU 0 L1D next line prefetcher final stats

DRAM Statistics
 CHANNEL 0
 RQ ROW_BUFFER_HIT:    1444247  ROW_BUFFER_MISS:    3299588
 DBUS_CONGESTED:    8185312
 WQ ROW_BUFFER_HIT:    1172987  ROW_BUFFER_MISS:    3249367  FULL:          0

 AVG_CONGESTED_CYCLE: 6

CPU 0 Branch Prediction Accuracy: 99.665% MPKI: 0.78342 Average ROB Occupancy at Mispredict: 124.193

Branch types
NOT_BRANCH: 38305856 76.6117%
BRANCH_DIRECT_JUMP: 384281 0.768562%
BRANCH_INDIRECT: 71949 0.143898%
BRANCH_CONDITIONAL: 9879825 19.7597%
BRANCH_DIRECT_CALL: 650586 1.30117%
BRANCH_INDIRECT_CALL: 28456 0.056912%
BRANCH_RETURN: 679046 1.35809%
BRANCH_OTHER: 0 0%

