Initialize SIGNATURE TABLE
ST_SET: 1
ST_WAY: 256
ST_TAG_BIT: 16
ST_TAG_MASK: ffff

Initialize PATTERN TABLE
PT_SET: 512
PT_WAY: 4
SIG_DELTA_BIT: 7
C_SIG_BIT: 4
C_DELTA_BIT: 4

Initialize PREFETCH FILTER
FILTER_SET: 1024

*** ChampSim Multicore Out-of-Order Simulator ***

Warmup Instructions: 50000000
Simulation Instructions: 50000000
Number of CPUs: 1
LLC sets: 2048
LLC ways: 16
Off-chip DRAM Size: 4096 MB Channels: 1 Width: 64-bit Data Rate: 3200 MT/s

CPU 0 runs /home/ykhodke/ChampSim/dpc3_traces/spec_gcc_002.champsimtrace.xz
LHT KB: 63.12
SCC KB: 1.56
Total KB: 64.69
CPU 0 L1D next line prefetcher
Heartbeat CPU 0 instructions: 10000002 cycles: 3527664 heartbeat IPC: 2.83474 cumulative IPC: 2.83474 (Simulation time: 0 hr 3 min 15 sec) 
Heartbeat CPU 0 instructions: 20000000 cycles: 7097806 heartbeat IPC: 2.80101 cumulative IPC: 2.81777 (Simulation time: 0 hr 6 min 22 sec) 
Heartbeat CPU 0 instructions: 30000000 cycles: 10702306 heartbeat IPC: 2.77431 cumulative IPC: 2.80313 (Simulation time: 0 hr 9 min 43 sec) 
Heartbeat CPU 0 instructions: 40000000 cycles: 14254621 heartbeat IPC: 2.81507 cumulative IPC: 2.80611 (Simulation time: 0 hr 13 min 4 sec) 
Heartbeat CPU 0 instructions: 50000002 cycles: 17751468 heartbeat IPC: 2.85972 cumulative IPC: 2.81667 (Simulation time: 0 hr 16 min 16 sec) 

Warmup complete CPU 0 instructions: 50000002 cycles: 17751468 (Simulation time: 0 hr 16 min 16 sec) 

Heartbeat CPU 0 instructions: 60000001 cycles: 55858318 heartbeat IPC: 0.26242 cumulative IPC: 0.26242 (Simulation time: 0 hr 21 min 57 sec) 
Heartbeat CPU 0 instructions: 70000001 cycles: 87843613 heartbeat IPC: 0.312644 cumulative IPC: 0.285339 (Simulation time: 0 hr 26 min 39 sec) 
Heartbeat CPU 0 instructions: 80000002 cycles: 136561924 heartbeat IPC: 0.205262 cumulative IPC: 0.252503 (Simulation time: 0 hr 30 min 18 sec) 
Heartbeat CPU 0 instructions: 90000001 cycles: 180538138 heartbeat IPC: 0.227396 cumulative IPC: 0.24572 (Simulation time: 0 hr 31 min 14 sec) 
Heartbeat CPU 0 instructions: 100000000 cycles: 210698442 heartbeat IPC: 0.331562 cumulative IPC: 0.259139 (Simulation time: 0 hr 31 min 42 sec) 
Finished CPU 0 instructions: 50000002 cycles: 192946982 cumulative IPC: 0.259139 (Simulation time: 0 hr 31 min 42 sec) 

ChampSim completed all CPUs

Region of Interest Statistics

CPU 0 cumulative IPC: 0.259139 instructions: 50000002 cycles: 192946982
L1D TOTAL     ACCESS:   18236692  HIT:   13003054  MISS:    5233638
L1D LOAD      ACCESS:    6357127  HIT:    5301590  MISS:    1055537
L1D RFO       ACCESS:    7034820  HIT:    3434041  MISS:    3600779
L1D PREFETCH  ACCESS:    4844745  HIT:    4267423  MISS:     577322
L1D WRITEBACK ACCESS:          0  HIT:          0  MISS:          0
L1D PREFETCH  REQUESTED:    6377668  ISSUED:    6307835  USEFUL:     417571  USELESS:     159967
L1D AVERAGE MISS LATENCY: 330.873 cycles
L1I TOTAL     ACCESS:   23449687  HIT:   21935777  MISS:    1513910
L1I LOAD      ACCESS:   12101692  HIT:   11946583  MISS:     155109
L1I RFO       ACCESS:          0  HIT:          0  MISS:          0
L1I PREFETCH  ACCESS:   11347995  HIT:    9989194  MISS:    1358801
L1I WRITEBACK ACCESS:          0  HIT:          0  MISS:          0
L1I PREFETCH  REQUESTED:   12753525  ISSUED:   12753340  USEFUL:     609061  USELESS:     749642
L1I AVERAGE MISS LATENCY: 42.7509 cycles
L2C TOTAL     ACCESS:   11033806  HIT:    5691596  MISS:    5342210
L2C LOAD      ACCESS:     289522  HIT:     126212  MISS:     163310
L2C RFO       ACCESS:    3599245  HIT:      12651  MISS:    3586594
L2C PREFETCH  ACCESS:    3419528  HIT:    1827463  MISS:    1592065
L2C WRITEBACK ACCESS:    3725511  HIT:    3725270  MISS:        241
L2C PREFETCH  REQUESTED:    3208017  ISSUED:    3207653  USEFUL:      29317  USELESS:    1562870
L2C AVERAGE MISS LATENCY: 338.406 cycles
LLC TOTAL     ACCESS:   10043845  HIT:    6300240  MISS:    3743605
LLC LOAD      ACCESS:     163150  HIT:     100235  MISS:      62915
LLC RFO       ACCESS:    3586594  HIT:     651169  MISS:    2935425
LLC PREFETCH  ACCESS:    2627364  HIT:    1882099  MISS:     745265
LLC WRITEBACK ACCESS:    3666737  HIT:    3666737  MISS:          0
LLC PREFETCH  REQUESTED:          0  ISSUED:          0  USEFUL:     145020  USELESS:     596471
LLC AVERAGE MISS LATENCY: 462.551 cycles
Major fault: 0 Minor fault: 4160
CPU 0 L1D next line prefetcher final stats

DRAM Statistics
 CHANNEL 0
 RQ ROW_BUFFER_HIT:     995149  ROW_BUFFER_MISS:    2746855
 DBUS_CONGESTED:    5405530
 WQ ROW_BUFFER_HIT:     924529  ROW_BUFFER_MISS:    2187772  FULL:          0

 AVG_CONGESTED_CYCLE: 6

CPU 0 Branch Prediction Accuracy: 99.5987% MPKI: 0.82446 Average ROB Occupancy at Mispredict: 128.812

Branch types
NOT_BRANCH: 39726800 79.4536%
BRANCH_DIRECT_JUMP: 391438 0.782876%
BRANCH_INDIRECT: 62076 0.124152%
BRANCH_CONDITIONAL: 8421539 16.8431%
BRANCH_DIRECT_CALL: 672961 1.34592%
BRANCH_INDIRECT_CALL: 26115 0.05223%
BRANCH_RETURN: 699082 1.39816%
BRANCH_OTHER: 0 0%

