Initialize SIGNATURE TABLE
ST_SET: 1
ST_WAY: 256
ST_TAG_BIT: 16
ST_TAG_MASK: ffff

Initialize PATTERN TABLE
PT_SET: 512
PT_WAY: 4
SIG_DELTA_BIT: 7
C_SIG_BIT: 4
C_DELTA_BIT: 4

Initialize PREFETCH FILTER
FILTER_SET: 1024

*** ChampSim Multicore Out-of-Order Simulator ***

Warmup Instructions: 50000000
Simulation Instructions: 50000000
Number of CPUs: 1
LLC sets: 2048
LLC ways: 16
Off-chip DRAM Size: 4096 MB Channels: 1 Width: 64-bit Data Rate: 3200 MT/s

CPU 0 runs /home/ykhodke/ChampSim/dpc3_traces/spec_x264_001.champsimtrace.xz
L1I D-JOLT instruction prefetcher has been constructed!
CPU 0 L1D next line prefetcher
Heartbeat CPU 0 instructions: 10000002 cycles: 3059609 heartbeat IPC: 3.26839 cumulative IPC: 3.26839 (Simulation time: 0 hr 1 min 34 sec) 
Heartbeat CPU 0 instructions: 20000002 cycles: 6109290 heartbeat IPC: 3.27903 cumulative IPC: 3.2737 (Simulation time: 0 hr 3 min 8 sec) 
Heartbeat CPU 0 instructions: 30000002 cycles: 9144528 heartbeat IPC: 3.29463 cumulative IPC: 3.28065 (Simulation time: 0 hr 4 min 41 sec) 
Heartbeat CPU 0 instructions: 40000000 cycles: 12188586 heartbeat IPC: 3.28509 cumulative IPC: 3.28176 (Simulation time: 0 hr 6 min 22 sec) 
Heartbeat CPU 0 instructions: 50000000 cycles: 15231364 heartbeat IPC: 3.28647 cumulative IPC: 3.2827 (Simulation time: 0 hr 8 min 19 sec) 

Warmup complete CPU 0 instructions: 50000004 cycles: 15231365 (Simulation time: 0 hr 8 min 19 sec) 

Heartbeat CPU 0 instructions: 60000002 cycles: 21160249 heartbeat IPC: 1.68666 cumulative IPC: 1.68666 (Simulation time: 0 hr 9 min 31 sec) 
Heartbeat CPU 0 instructions: 70000000 cycles: 27070314 heartbeat IPC: 1.69203 cumulative IPC: 1.68934 (Simulation time: 0 hr 10 min 36 sec) 
Heartbeat CPU 0 instructions: 80000003 cycles: 33128308 heartbeat IPC: 1.65071 cumulative IPC: 1.67626 (Simulation time: 0 hr 11 min 44 sec) 
Heartbeat CPU 0 instructions: 90000002 cycles: 39165120 heartbeat IPC: 1.6565 cumulative IPC: 1.67128 (Simulation time: 0 hr 12 min 53 sec) 
Heartbeat CPU 0 instructions: 100000002 cycles: 45060512 heartbeat IPC: 1.69624 cumulative IPC: 1.67621 (Simulation time: 0 hr 14 min 3 sec) 
Finished CPU 0 instructions: 50000002 cycles: 29829148 cumulative IPC: 1.67621 (Simulation time: 0 hr 14 min 3 sec) 

ChampSim completed all CPUs

Region of Interest Statistics

CPU 0 cumulative IPC: 1.67621 instructions: 50000002 cycles: 29829148
L1D TOTAL     ACCESS:   12968545  HIT:   12807653  MISS:     160892
L1D LOAD      ACCESS:    5096320  HIT:    5041253  MISS:      55067
L1D RFO       ACCESS:    2880889  HIT:    2846578  MISS:      34311
L1D PREFETCH  ACCESS:    4991336  HIT:    4919822  MISS:      71514
L1D WRITEBACK ACCESS:          0  HIT:          0  MISS:          0
L1D PREFETCH  REQUESTED:    5113105  ISSUED:    5045182  USEFUL:      25734  USELESS:      45590
L1D AVERAGE MISS LATENCY: 40.7115 cycles
L1I TOTAL     ACCESS:    9582575  HIT:    9175305  MISS:     407270
L1I LOAD      ACCESS:    8037218  HIT:    8030558  MISS:       6660
L1I RFO       ACCESS:          0  HIT:          0  MISS:          0
L1I PREFETCH  ACCESS:    1545357  HIT:    1144747  MISS:     400610
L1I WRITEBACK ACCESS:          0  HIT:          0  MISS:          0
L1I PREFETCH  REQUESTED:    1665125  ISSUED:    1636721  USEFUL:     303406  USELESS:      97241
L1I AVERAGE MISS LATENCY: 14.9749 cycles
L2C TOTAL     ACCESS:     867499  HIT:     828920  MISS:      38579
L2C LOAD      ACCESS:      59633  HIT:      54337  MISS:       5296
L2C RFO       ACCESS:      34123  HIT:      22074  MISS:      12049
L2C PREFETCH  ACCESS:     730656  HIT:     709497  MISS:      21159
L2C WRITEBACK ACCESS:      43087  HIT:      43012  MISS:         75
L2C PREFETCH  REQUESTED:     652298  ISSUED:     647541  USEFUL:       8937  USELESS:      12460
L2C AVERAGE MISS LATENCY: 107.507 cycles
LLC TOTAL     ACCESS:     119909  HIT:      90775  MISS:      29134
LLC LOAD      ACCESS:       5296  HIT:       3158  MISS:       2138
LLC RFO       ACCESS:      12049  HIT:        437  MISS:      11612
LLC PREFETCH  ACCESS:      88993  HIT:      73670  MISS:      15323
LLC WRITEBACK ACCESS:      13571  HIT:      13510  MISS:         61
LLC PREFETCH  REQUESTED:          0  ISSUED:          0  USEFUL:       1709  USELESS:      13961
LLC AVERAGE MISS LATENCY: 166.779 cycles
Major fault: 0 Minor fault: 1285
CPU 0 L1D next line prefetcher final stats

DRAM Statistics
 CHANNEL 0
 RQ ROW_BUFFER_HIT:       8780  ROW_BUFFER_MISS:      20293
 DBUS_CONGESTED:      12357
 WQ ROW_BUFFER_HIT:       3034  ROW_BUFFER_MISS:       9748  FULL:          0

 AVG_CONGESTED_CYCLE: 6

CPU 0 Branch Prediction Accuracy: 97.1633% MPKI: 1.73704 Average ROB Occupancy at Mispredict: 43.1115

Branch types
NOT_BRANCH: 46937921 93.8758%
BRANCH_DIRECT_JUMP: 170816 0.341632%
BRANCH_INDIRECT: 0 0%
BRANCH_CONDITIONAL: 2532774 5.06555%
BRANCH_DIRECT_CALL: 114227 0.228454%
BRANCH_INDIRECT_CALL: 64863 0.129726%
BRANCH_RETURN: 179089 0.358178%
BRANCH_OTHER: 0 0%

