Initialize SIGNATURE TABLE
ST_SET: 1
ST_WAY: 256
ST_TAG_BIT: 16
ST_TAG_MASK: ffff

Initialize PATTERN TABLE
PT_SET: 512
PT_WAY: 4
SIG_DELTA_BIT: 7
C_SIG_BIT: 4
C_DELTA_BIT: 4

Initialize PREFETCH FILTER
FILTER_SET: 1024

*** ChampSim Multicore Out-of-Order Simulator ***

Warmup Instructions: 50000000
Simulation Instructions: 50000000
Number of CPUs: 1
LLC sets: 2048
LLC ways: 16
Off-chip DRAM Size: 4096 MB Channels: 1 Width: 64-bit Data Rate: 3200 MT/s

CPU 0 runs /home/ykhodke/ChampSim/dpc3_traces/spec_gcc_003.champsimtrace.xz
LHT KB: 63.12
SCC KB: 1.56
Total KB: 64.69
CPU 0 L1D next line prefetcher
Heartbeat CPU 0 instructions: 10000001 cycles: 3484650 heartbeat IPC: 2.86973 cumulative IPC: 2.86973 (Simulation time: 0 hr 2 min 23 sec) 
Heartbeat CPU 0 instructions: 20000000 cycles: 6958115 heartbeat IPC: 2.87897 cumulative IPC: 2.87434 (Simulation time: 0 hr 4 min 41 sec) 
Heartbeat CPU 0 instructions: 30000002 cycles: 10401286 heartbeat IPC: 2.9043 cumulative IPC: 2.88426 (Simulation time: 0 hr 7 min 0 sec) 
Heartbeat CPU 0 instructions: 40000000 cycles: 13869197 heartbeat IPC: 2.88358 cumulative IPC: 2.88409 (Simulation time: 0 hr 9 min 49 sec) 
Heartbeat CPU 0 instructions: 50000001 cycles: 17179315 heartbeat IPC: 3.02104 cumulative IPC: 2.91048 (Simulation time: 0 hr 12 min 31 sec) 

Warmup complete CPU 0 instructions: 50000001 cycles: 17179315 (Simulation time: 0 hr 12 min 31 sec) 

Heartbeat CPU 0 instructions: 60000000 cycles: 56526552 heartbeat IPC: 0.254147 cumulative IPC: 0.254147 (Simulation time: 0 hr 18 min 16 sec) 
Heartbeat CPU 0 instructions: 70000000 cycles: 98520386 heartbeat IPC: 0.23813 cumulative IPC: 0.245878 (Simulation time: 0 hr 24 min 22 sec) 
Heartbeat CPU 0 instructions: 80000003 cycles: 141685234 heartbeat IPC: 0.23167 cumulative IPC: 0.240952 (Simulation time: 0 hr 28 min 56 sec) 
Heartbeat CPU 0 instructions: 90000002 cycles: 178213402 heartbeat IPC: 0.273761 cumulative IPC: 0.248395 (Simulation time: 0 hr 30 min 21 sec) 
Heartbeat CPU 0 instructions: 100000001 cycles: 224210866 heartbeat IPC: 0.217403 cumulative IPC: 0.241509 (Simulation time: 0 hr 31 min 0 sec) 
Finished CPU 0 instructions: 50000000 cycles: 207031551 cumulative IPC: 0.241509 (Simulation time: 0 hr 31 min 0 sec) 

ChampSim completed all CPUs

Region of Interest Statistics

CPU 0 cumulative IPC: 0.241509 instructions: 50000000 cycles: 207031551
L1D TOTAL     ACCESS:   16883071  HIT:   11158707  MISS:    5724364
L1D LOAD      ACCESS:    4582728  HIT:    4199631  MISS:     383097
L1D RFO       ACCESS:    8207430  HIT:    3155657  MISS:    5051773
L1D PREFETCH  ACCESS:    4092913  HIT:    3803419  MISS:     289494
L1D WRITEBACK ACCESS:          0  HIT:          0  MISS:          0
L1D PREFETCH  REQUESTED:    4600972  ISSUED:    4541709  USEFUL:     152146  USELESS:     137528
L1D AVERAGE MISS LATENCY: 497.449 cycles
L1I TOTAL     ACCESS:   24646024  HIT:   22769986  MISS:    1876038
L1I LOAD      ACCESS:   11263477  HIT:   11071253  MISS:     192224
L1I RFO       ACCESS:          0  HIT:          0  MISS:          0
L1I PREFETCH  ACCESS:   13382547  HIT:   11698733  MISS:    1683814
L1I WRITEBACK ACCESS:          0  HIT:          0  MISS:          0
L1I PREFETCH  REQUESTED:   14967325  ISSUED:   14967277  USEFUL:     741218  USELESS:     942490
L1I AVERAGE MISS LATENCY: 33.3611 cycles
L2C TOTAL     ACCESS:   13291236  HIT:    7184549  MISS:    6106687
L2C LOAD      ACCESS:     247738  HIT:      73756  MISS:     173982
L2C RFO       ACCESS:    5049928  HIT:       6464  MISS:    5043464
L2C PREFETCH  ACCESS:    2835710  HIT:    1946679  MISS:     889031
L2C WRITEBACK ACCESS:    5157860  HIT:    5157650  MISS:        210
L2C PREFETCH  REQUESTED:    2185723  ISSUED:    2185331  USEFUL:      29371  USELESS:     856735
L2C AVERAGE MISS LATENCY: 461.919 cycles
LLC TOTAL     ACCESS:   12054272  HIT:    7463691  MISS:    4590581
LLC LOAD      ACCESS:     173947  HIT:     131998  MISS:      41949
LLC RFO       ACCESS:    5043464  HIT:     714772  MISS:    4328692
LLC PREFETCH  ACCESS:    1703159  HIT:    1483219  MISS:     219940
LLC WRITEBACK ACCESS:    5133702  HIT:    5133702  MISS:          0
LLC PREFETCH  REQUESTED:          0  ISSUED:          0  USEFUL:      11585  USELESS:     207993
LLC AVERAGE MISS LATENCY: 581.11 cycles
Major fault: 0 Minor fault: 2821
CPU 0 L1D next line prefetcher final stats

DRAM Statistics
 CHANNEL 0
 RQ ROW_BUFFER_HIT:    1363560  ROW_BUFFER_MISS:    3226944
 DBUS_CONGESTED:    8023097
 WQ ROW_BUFFER_HIT:    1162213  ROW_BUFFER_MISS:    3194539  FULL:          0

 AVG_CONGESTED_CYCLE: 6

CPU 0 Branch Prediction Accuracy: 99.665% MPKI: 0.78342 Average ROB Occupancy at Mispredict: 116.062

Branch types
NOT_BRANCH: 38305856 76.6117%
BRANCH_DIRECT_JUMP: 384281 0.768562%
BRANCH_INDIRECT: 71949 0.143898%
BRANCH_CONDITIONAL: 9879825 19.7597%
BRANCH_DIRECT_CALL: 650586 1.30117%
BRANCH_INDIRECT_CALL: 28456 0.056912%
BRANCH_RETURN: 679046 1.35809%
BRANCH_OTHER: 0 0%

