Initialize SIGNATURE TABLE
ST_SET: 1
ST_WAY: 256
ST_TAG_BIT: 16
ST_TAG_MASK: ffff

Initialize PATTERN TABLE
PT_SET: 512
PT_WAY: 4
SIG_DELTA_BIT: 7
C_SIG_BIT: 4
C_DELTA_BIT: 4

Initialize PREFETCH FILTER
FILTER_SET: 1024

*** ChampSim Multicore Out-of-Order Simulator ***

Warmup Instructions: 50000000
Simulation Instructions: 50000000
Number of CPUs: 1
LLC sets: 2048
LLC ways: 16
Off-chip DRAM Size: 4096 MB Channels: 1 Width: 64-bit Data Rate: 3200 MT/s

CPU 0 runs /home/ykhodke/ChampSim/dpc3_traces/spec_x264_001.champsimtrace.xz
L1I D-JOLT instruction prefetcher has been constructed!
CPU 0 L1D next line prefetcher
Heartbeat CPU 0 instructions: 10000002 cycles: 3059588 heartbeat IPC: 3.26841 cumulative IPC: 3.26841 (Simulation time: 0 hr 1 min 46 sec) 
Heartbeat CPU 0 instructions: 20000002 cycles: 6109324 heartbeat IPC: 3.27897 cumulative IPC: 3.27368 (Simulation time: 0 hr 3 min 12 sec) 
Heartbeat CPU 0 instructions: 30000002 cycles: 9144654 heartbeat IPC: 3.29453 cumulative IPC: 3.28061 (Simulation time: 0 hr 4 min 40 sec) 
Heartbeat CPU 0 instructions: 40000000 cycles: 12188800 heartbeat IPC: 3.28499 cumulative IPC: 3.2817 (Simulation time: 0 hr 6 min 9 sec) 
Heartbeat CPU 0 instructions: 50000000 cycles: 15231663 heartbeat IPC: 3.28638 cumulative IPC: 3.28264 (Simulation time: 0 hr 7 min 41 sec) 

Warmup complete CPU 0 instructions: 50000004 cycles: 15231664 (Simulation time: 0 hr 7 min 41 sec) 

Heartbeat CPU 0 instructions: 60000002 cycles: 21164077 heartbeat IPC: 1.68565 cumulative IPC: 1.68565 (Simulation time: 0 hr 8 min 43 sec) 
Heartbeat CPU 0 instructions: 70000000 cycles: 27079839 heartbeat IPC: 1.6904 cumulative IPC: 1.68802 (Simulation time: 0 hr 9 min 43 sec) 
Heartbeat CPU 0 instructions: 80000003 cycles: 33137972 heartbeat IPC: 1.65067 cumulative IPC: 1.67539 (Simulation time: 0 hr 10 min 43 sec) 
Heartbeat CPU 0 instructions: 90000002 cycles: 39178318 heartbeat IPC: 1.65553 cumulative IPC: 1.67038 (Simulation time: 0 hr 11 min 45 sec) 
Heartbeat CPU 0 instructions: 100000002 cycles: 45077858 heartbeat IPC: 1.69505 cumulative IPC: 1.67526 (Simulation time: 0 hr 12 min 48 sec) 
Finished CPU 0 instructions: 50000002 cycles: 29846195 cumulative IPC: 1.67526 (Simulation time: 0 hr 12 min 48 sec) 

ChampSim completed all CPUs

Region of Interest Statistics

CPU 0 cumulative IPC: 1.67526 instructions: 50000002 cycles: 29846195
L1D TOTAL     ACCESS:   12966267  HIT:   12805302  MISS:     160965
L1D LOAD      ACCESS:    5094971  HIT:    5039934  MISS:      55037
L1D RFO       ACCESS:    2881070  HIT:    2846730  MISS:      34340
L1D PREFETCH  ACCESS:    4990226  HIT:    4918638  MISS:      71588
L1D WRITEBACK ACCESS:          0  HIT:          0  MISS:          0
L1D PREFETCH  REQUESTED:    5111797  ISSUED:    5044275  USEFUL:      25757  USELESS:      45640
L1D AVERAGE MISS LATENCY: 40.6881 cycles
L1I TOTAL     ACCESS:    9450359  HIT:    9049380  MISS:     400979
L1I LOAD      ACCESS:    8038993  HIT:    8030894  MISS:       8099
L1I RFO       ACCESS:          0  HIT:          0  MISS:          0
L1I PREFETCH  ACCESS:    1411366  HIT:    1018486  MISS:     392880
L1I WRITEBACK ACCESS:          0  HIT:          0  MISS:          0
L1I PREFETCH  REQUESTED:    1496362  ISSUED:    1476599  USEFUL:     299540  USELESS:      93383
L1I AVERAGE MISS LATENCY: 14.9511 cycles
L2C TOTAL     ACCESS:     857878  HIT:     819298  MISS:      38580
L2C LOAD      ACCESS:      60913  HIT:      55558  MISS:       5355
L2C RFO       ACCESS:      34150  HIT:      22091  MISS:      12059
L2C PREFETCH  ACCESS:     719705  HIT:     698613  MISS:      21092
L2C WRITEBACK ACCESS:      43110  HIT:      43036  MISS:         74
L2C PREFETCH  REQUESTED:     616191  ISSUED:     612970  USEFUL:       8967  USELESS:      12399
L2C AVERAGE MISS LATENCY: 107.553 cycles
LLC TOTAL     ACCESS:     113483  HIT:      84271  MISS:      29212
LLC LOAD      ACCESS:       5355  HIT:       3252  MISS:       2103
LLC RFO       ACCESS:      12059  HIT:        431  MISS:      11628
LLC PREFETCH  ACCESS:      82483  HIT:      67064  MISS:      15419
LLC WRITEBACK ACCESS:      13586  HIT:      13524  MISS:         62
LLC PREFETCH  REQUESTED:          0  ISSUED:          0  USEFUL:       1763  USELESS:      13960
LLC AVERAGE MISS LATENCY: 165.918 cycles
Major fault: 0 Minor fault: 1285
CPU 0 L1D next line prefetcher final stats

DRAM Statistics
 CHANNEL 0
 RQ ROW_BUFFER_HIT:       8851  ROW_BUFFER_MISS:      20298
 DBUS_CONGESTED:      12197
 WQ ROW_BUFFER_HIT:       2868  ROW_BUFFER_MISS:       9971  FULL:          0

 AVG_CONGESTED_CYCLE: 6

CPU 0 Branch Prediction Accuracy: 97.1633% MPKI: 1.73704 Average ROB Occupancy at Mispredict: 42.9518

Branch types
NOT_BRANCH: 46937921 93.8758%
BRANCH_DIRECT_JUMP: 170816 0.341632%
BRANCH_INDIRECT: 0 0%
BRANCH_CONDITIONAL: 2532774 5.06555%
BRANCH_DIRECT_CALL: 114227 0.228454%
BRANCH_INDIRECT_CALL: 64863 0.129726%
BRANCH_RETURN: 179089 0.358178%
BRANCH_OTHER: 0 0%

