Initialize SIGNATURE TABLE
ST_SET: 1
ST_WAY: 256
ST_TAG_BIT: 16
ST_TAG_MASK: ffff

Initialize PATTERN TABLE
PT_SET: 512
PT_WAY: 4
SIG_DELTA_BIT: 7
C_SIG_BIT: 4
C_DELTA_BIT: 4

Initialize PREFETCH FILTER
FILTER_SET: 1024

*** ChampSim Multicore Out-of-Order Simulator ***

Warmup Instructions: 50000000
Simulation Instructions: 50000000
Number of CPUs: 1
LLC sets: 2048
LLC ways: 16
Off-chip DRAM Size: 4096 MB Channels: 1 Width: 64-bit Data Rate: 3200 MT/s

CPU 0 runs /home/ykhodke/ChampSim/dpc3_traces/spec_gobmk_001.champsimtrace.xz
LHT KB: 126.25
SCC KB: 1.56
Total KB: 127.81
CPU 0 L1D next line prefetcher
Heartbeat CPU 0 instructions: 10000003 cycles: 3507646 heartbeat IPC: 2.85092 cumulative IPC: 2.85092 (Simulation time: 0 hr 2 min 30 sec) 
Heartbeat CPU 0 instructions: 20000002 cycles: 6988218 heartbeat IPC: 2.87309 cumulative IPC: 2.86196 (Simulation time: 0 hr 5 min 3 sec) 
Heartbeat CPU 0 instructions: 30000002 cycles: 10507642 heartbeat IPC: 2.84137 cumulative IPC: 2.85507 (Simulation time: 0 hr 7 min 34 sec) 
Heartbeat CPU 0 instructions: 40000001 cycles: 14026977 heartbeat IPC: 2.84145 cumulative IPC: 2.85165 (Simulation time: 0 hr 10 min 6 sec) 
Heartbeat CPU 0 instructions: 50000001 cycles: 17567198 heartbeat IPC: 2.82468 cumulative IPC: 2.84621 (Simulation time: 0 hr 12 min 39 sec) 

Warmup complete CPU 0 instructions: 50000001 cycles: 17567198 (Simulation time: 0 hr 12 min 39 sec) 

Heartbeat CPU 0 instructions: 60000000 cycles: 26325694 heartbeat IPC: 1.14175 cumulative IPC: 1.14175 (Simulation time: 0 hr 14 min 54 sec) 
Heartbeat CPU 0 instructions: 70000002 cycles: 34736354 heartbeat IPC: 1.18897 cumulative IPC: 1.16488 (Simulation time: 0 hr 17 min 5 sec) 
Heartbeat CPU 0 instructions: 80000003 cycles: 43562829 heartbeat IPC: 1.13296 cumulative IPC: 1.15404 (Simulation time: 0 hr 19 min 7 sec) 
Heartbeat CPU 0 instructions: 90000001 cycles: 52069769 heartbeat IPC: 1.17551 cumulative IPC: 1.15933 (Simulation time: 0 hr 21 min 5 sec) 
Heartbeat CPU 0 instructions: 100000003 cycles: 60887388 heartbeat IPC: 1.13409 cumulative IPC: 1.1542 (Simulation time: 0 hr 23 min 6 sec) 
Finished CPU 0 instructions: 50000002 cycles: 43320190 cumulative IPC: 1.1542 (Simulation time: 0 hr 23 min 6 sec) 

ChampSim completed all CPUs

Region of Interest Statistics

CPU 0 cumulative IPC: 1.1542 instructions: 50000002 cycles: 43320190
L1D TOTAL     ACCESS:   17993670  HIT:   17614119  MISS:     379551
L1D LOAD      ACCESS:    7215423  HIT:    7079907  MISS:     135516
L1D RFO       ACCESS:    3702286  HIT:    3597722  MISS:     104564
L1D PREFETCH  ACCESS:    7075961  HIT:    6936490  MISS:     139471
L1D WRITEBACK ACCESS:          0  HIT:          0  MISS:          0
L1D PREFETCH  REQUESTED:    7220855  ISSUED:    7138037  USEFUL:      44762  USELESS:      94714
L1D AVERAGE MISS LATENCY: 33.0569 cycles
L1I TOTAL     ACCESS:   19994393  HIT:   18622702  MISS:    1371691
L1I LOAD      ACCESS:    8955327  HIT:    8847693  MISS:     107634
L1I RFO       ACCESS:          0  HIT:          0  MISS:          0
L1I PREFETCH  ACCESS:   11039066  HIT:    9775009  MISS:    1264057
L1I WRITEBACK ACCESS:          0  HIT:          0  MISS:          0
L1I PREFETCH  REQUESTED:   12227674  ISSUED:   12227674  USEFUL:     656415  USELESS:     607612
L1I AVERAGE MISS LATENCY: 13.804 cycles
L2C TOTAL     ACCESS:    2438177  HIT:    2311494  MISS:     126683
L2C LOAD      ACCESS:     128362  HIT:      94115  MISS:      34247
L2C RFO       ACCESS:     104202  HIT:      69767  MISS:      34435
L2C PREFETCH  ACCESS:    2066315  HIT:    2008352  MISS:      57963
L2C WRITEBACK ACCESS:     139298  HIT:     139260  MISS:         38
L2C PREFETCH  REQUESTED:     984071  ISSUED:     984040  USEFUL:       4040  USELESS:      54223
L2C AVERAGE MISS LATENCY: 62.7792 cycles
LLC TOTAL     ACCESS:     281578  HIT:     249135  MISS:      32443
LLC LOAD      ACCESS:      34246  HIT:      26188  MISS:       8058
LLC RFO       ACCESS:      34433  HIT:      29160  MISS:       5273
LLC PREFETCH  ACCESS:     167592  HIT:     148710  MISS:      18882
LLC WRITEBACK ACCESS:      45307  HIT:      45077  MISS:        230
LLC PREFETCH  REQUESTED:          0  ISSUED:          0  USEFUL:       1170  USELESS:      16703
LLC AVERAGE MISS LATENCY: 178.35 cycles
Major fault: 0 Minor fault: 4164
CPU 0 L1D next line prefetcher final stats

DRAM Statistics
 CHANNEL 0
 RQ ROW_BUFFER_HIT:       3751  ROW_BUFFER_MISS:      28461
 DBUS_CONGESTED:      17461
 WQ ROW_BUFFER_HIT:       1113  ROW_BUFFER_MISS:      13549  FULL:          0

 AVG_CONGESTED_CYCLE: 4

CPU 0 Branch Prediction Accuracy: 94.7729% MPKI: 9.72684 Average ROB Occupancy at Mispredict: 54.0544

Branch types
NOT_BRANCH: 40695383 81.3908%
BRANCH_DIRECT_JUMP: 422107 0.844214%
BRANCH_INDIRECT: 65 0.00013%
BRANCH_CONDITIONAL: 8105005 16.21%
BRANCH_DIRECT_CALL: 374913 0.749826%
BRANCH_INDIRECT_CALL: 13657 0.027314%
BRANCH_RETURN: 388556 0.777112%
BRANCH_OTHER: 0 0%

