Initialize SIGNATURE TABLE
ST_SET: 1
ST_WAY: 256
ST_TAG_BIT: 16
ST_TAG_MASK: ffff

Initialize PATTERN TABLE
PT_SET: 512
PT_WAY: 4
SIG_DELTA_BIT: 7
C_SIG_BIT: 4
C_DELTA_BIT: 4

Initialize PREFETCH FILTER
FILTER_SET: 1024

*** ChampSim Multicore Out-of-Order Simulator ***

Warmup Instructions: 50000000
Simulation Instructions: 50000000
Number of CPUs: 1
LLC sets: 2048
LLC ways: 16
Off-chip DRAM Size: 4096 MB Channels: 1 Width: 64-bit Data Rate: 3200 MT/s

CPU 0 runs /home/ykhodke/ChampSim/dpc3_traces/spec_perlbench_001.champsimtrace.xz
L1I D-JOLT instruction prefetcher has been constructed!
CPU 0 L1D next line prefetcher
Heartbeat CPU 0 instructions: 10000000 cycles: 3276367 heartbeat IPC: 3.05216 cumulative IPC: 3.05216 (Simulation time: 0 hr 3 min 16 sec) 
Heartbeat CPU 0 instructions: 20000000 cycles: 6542436 heartbeat IPC: 3.06178 cumulative IPC: 3.05697 (Simulation time: 0 hr 6 min 32 sec) 
Heartbeat CPU 0 instructions: 30000002 cycles: 9861539 heartbeat IPC: 3.01286 cumulative IPC: 3.04212 (Simulation time: 0 hr 10 min 16 sec) 
Heartbeat CPU 0 instructions: 40000002 cycles: 13117953 heartbeat IPC: 3.07086 cumulative IPC: 3.04926 (Simulation time: 0 hr 13 min 12 sec) 
Heartbeat CPU 0 instructions: 50000001 cycles: 16392374 heartbeat IPC: 3.05397 cumulative IPC: 3.0502 (Simulation time: 0 hr 16 min 18 sec) 

Warmup complete CPU 0 instructions: 50000001 cycles: 16392374 (Simulation time: 0 hr 16 min 18 sec) 

Heartbeat CPU 0 instructions: 60000001 cycles: 24717943 heartbeat IPC: 1.20112 cumulative IPC: 1.20112 (Simulation time: 0 hr 19 min 12 sec) 
Heartbeat CPU 0 instructions: 70000003 cycles: 32904699 heartbeat IPC: 1.22149 cumulative IPC: 1.21122 (Simulation time: 0 hr 22 min 17 sec) 
Heartbeat CPU 0 instructions: 80000000 cycles: 41382141 heartbeat IPC: 1.1796 cumulative IPC: 1.20049 (Simulation time: 0 hr 25 min 38 sec) 
Heartbeat CPU 0 instructions: 90000000 cycles: 47138004 heartbeat IPC: 1.73736 cumulative IPC: 1.301 (Simulation time: 0 hr 27 min 51 sec) 
Heartbeat CPU 0 instructions: 100000002 cycles: 53058381 heartbeat IPC: 1.68908 cumulative IPC: 1.36366 (Simulation time: 0 hr 29 min 31 sec) 
Finished CPU 0 instructions: 50000001 cycles: 36666007 cumulative IPC: 1.36366 (Simulation time: 0 hr 29 min 31 sec) 

ChampSim completed all CPUs

Region of Interest Statistics

CPU 0 cumulative IPC: 1.36366 instructions: 50000001 cycles: 36666007
L1D TOTAL     ACCESS:   20687075  HIT:   20271996  MISS:     415079
L1D LOAD      ACCESS:    7173434  HIT:    6959679  MISS:     213755
L1D RFO       ACCESS:    6542259  HIT:    6523748  MISS:      18511
L1D PREFETCH  ACCESS:    6971382  HIT:    6788569  MISS:     182813
L1D WRITEBACK ACCESS:          0  HIT:          0  MISS:          0
L1D PREFETCH  REQUESTED:    7189407  ISSUED:    7072957  USEFUL:      55144  USELESS:     127664
L1D AVERAGE MISS LATENCY: 59.8629 cycles
L1I TOTAL     ACCESS:   16890518  HIT:   15337795  MISS:    1552723
L1I LOAD      ACCESS:    9188935  HIT:    9124671  MISS:      64264
L1I RFO       ACCESS:          0  HIT:          0  MISS:          0
L1I PREFETCH  ACCESS:    7701583  HIT:    6213124  MISS:    1488459
L1I WRITEBACK ACCESS:          0  HIT:          0  MISS:          0
L1I PREFETCH  REQUESTED:    8500579  ISSUED:    7848123  USEFUL:     595565  USELESS:     892924
L1I AVERAGE MISS LATENCY: 16.2025 cycles
L2C TOTAL     ACCESS:    2759232  HIT:    2585714  MISS:     173518
L2C LOAD      ACCESS:     268364  HIT:     185595  MISS:      82769
L2C RFO       ACCESS:      18261  HIT:      12535  MISS:       5726
L2C PREFETCH  ACCESS:    2393661  HIT:    2309127  MISS:      84534
L2C WRITEBACK ACCESS:      78946  HIT:      78457  MISS:        489
L2C PREFETCH  REQUESTED:    1422462  ISSUED:    1422316  USEFUL:       7176  USELESS:      77404
L2C AVERAGE MISS LATENCY: 118.147 cycles
LLC TOTAL     ACCESS:     440955  HIT:     297678  MISS:     143277
LLC LOAD      ACCESS:      82765  HIT:      32041  MISS:      50724
LLC RFO       ACCESS:       5726  HIT:       2625  MISS:       3101
LLC PREFETCH  ACCESS:     325866  HIT:     236875  MISS:      88991
LLC WRITEBACK ACCESS:      26598  HIT:      26137  MISS:        461
LLC PREFETCH  REQUESTED:          0  ISSUED:          0  USEFUL:      12972  USELESS:      76088
LLC AVERAGE MISS LATENCY: 159.735 cycles
Major fault: 0 Minor fault: 6365
CPU 0 L1D next line prefetcher final stats

DRAM Statistics
 CHANNEL 0
 RQ ROW_BUFFER_HIT:      32367  ROW_BUFFER_MISS:     110449
 DBUS_CONGESTED:      55059
 WQ ROW_BUFFER_HIT:       4542  ROW_BUFFER_MISS:      12850  FULL:          0

 AVG_CONGESTED_CYCLE: 4

CPU 0 Branch Prediction Accuracy: 98.7418% MPKI: 2.47758 Average ROB Occupancy at Mispredict: 78.9516

Branch types
NOT_BRANCH: 40154100 80.3082%
BRANCH_DIRECT_JUMP: 817094 1.63419%
BRANCH_INDIRECT: 303787 0.607574%
BRANCH_CONDITIONAL: 7492103 14.9842%
BRANCH_DIRECT_CALL: 471777 0.943554%
BRANCH_INDIRECT_CALL: 144546 0.289092%
BRANCH_RETURN: 616324 1.23265%
BRANCH_OTHER: 0 0%

