Initialize SIGNATURE TABLE
ST_SET: 1
ST_WAY: 256
ST_TAG_BIT: 16
ST_TAG_MASK: ffff

Initialize PATTERN TABLE
PT_SET: 512
PT_WAY: 4
SIG_DELTA_BIT: 7
C_SIG_BIT: 4
C_DELTA_BIT: 4

Initialize PREFETCH FILTER
FILTER_SET: 1024

*** ChampSim Multicore Out-of-Order Simulator ***

Warmup Instructions: 50000000
Simulation Instructions: 50000000
Number of CPUs: 1
LLC sets: 2048
LLC ways: 16
Off-chip DRAM Size: 4096 MB Channels: 1 Width: 64-bit Data Rate: 3200 MT/s

CPU 0 runs /home/ykhodke/ChampSim/dpc3_traces/spec_x264_001.champsimtrace.xz
LHT KB: 126.25
SCC KB: 1.56
Total KB: 127.81
CPU 0 L1D next line prefetcher
Heartbeat CPU 0 instructions: 10000002 cycles: 3060490 heartbeat IPC: 3.26745 cumulative IPC: 3.26745 (Simulation time: 0 hr 2 min 2 sec) 
Heartbeat CPU 0 instructions: 20000002 cycles: 6111197 heartbeat IPC: 3.27793 cumulative IPC: 3.27268 (Simulation time: 0 hr 3 min 57 sec) 
Heartbeat CPU 0 instructions: 30000002 cycles: 9147258 heartbeat IPC: 3.29374 cumulative IPC: 3.27967 (Simulation time: 0 hr 5 min 48 sec) 
Heartbeat CPU 0 instructions: 40000000 cycles: 12192389 heartbeat IPC: 3.28393 cumulative IPC: 3.28074 (Simulation time: 0 hr 7 min 39 sec) 
Heartbeat CPU 0 instructions: 50000000 cycles: 15235897 heartbeat IPC: 3.28568 cumulative IPC: 3.28172 (Simulation time: 0 hr 9 min 35 sec) 

Warmup complete CPU 0 instructions: 50000004 cycles: 15235898 (Simulation time: 0 hr 9 min 35 sec) 

Heartbeat CPU 0 instructions: 60000001 cycles: 21175357 heartbeat IPC: 1.68365 cumulative IPC: 1.68365 (Simulation time: 0 hr 10 min 51 sec) 
Heartbeat CPU 0 instructions: 70000000 cycles: 27094025 heartbeat IPC: 1.68957 cumulative IPC: 1.68661 (Simulation time: 0 hr 12 min 4 sec) 
Heartbeat CPU 0 instructions: 80000003 cycles: 33162800 heartbeat IPC: 1.64778 cumulative IPC: 1.67346 (Simulation time: 0 hr 13 min 18 sec) 
Heartbeat CPU 0 instructions: 90000002 cycles: 39209973 heartbeat IPC: 1.65367 cumulative IPC: 1.66847 (Simulation time: 0 hr 14 min 32 sec) 
Heartbeat CPU 0 instructions: 100000002 cycles: 45116669 heartbeat IPC: 1.69299 cumulative IPC: 1.67332 (Simulation time: 0 hr 15 min 48 sec) 
Finished CPU 0 instructions: 50000002 cycles: 29880772 cumulative IPC: 1.67332 (Simulation time: 0 hr 15 min 48 sec) 

ChampSim completed all CPUs

Region of Interest Statistics

CPU 0 cumulative IPC: 1.67332 instructions: 50000002 cycles: 29880772
L1D TOTAL     ACCESS:   12967767  HIT:   12806693  MISS:     161074
L1D LOAD      ACCESS:    5097946  HIT:    5042825  MISS:      55121
L1D RFO       ACCESS:    2880574  HIT:    2846281  MISS:      34293
L1D PREFETCH  ACCESS:    4989247  HIT:    4917587  MISS:      71660
L1D WRITEBACK ACCESS:          0  HIT:          0  MISS:          0
L1D PREFETCH  REQUESTED:    5114754  ISSUED:    5047538  USEFUL:      25776  USELESS:      45693
L1D AVERAGE MISS LATENCY: 41.6493 cycles
L1I TOTAL     ACCESS:   11104557  HIT:   10770257  MISS:     334300
L1I LOAD      ACCESS:    8035159  HIT:    8015435  MISS:      19724
L1I RFO       ACCESS:          0  HIT:          0  MISS:          0
L1I PREFETCH  ACCESS:    3069398  HIT:    2754822  MISS:     314576
L1I WRITEBACK ACCESS:          0  HIT:          0  MISS:          0
L1I PREFETCH  REQUESTED:    3199236  ISSUED:    3199236  USEFUL:     257734  USELESS:      56854
L1I AVERAGE MISS LATENCY: 13.8647 cycles
L2C TOTAL     ACCESS:     732931  HIT:     694453  MISS:      38478
L2C LOAD      ACCESS:      56509  HIT:      51291  MISS:       5218
L2C RFO       ACCESS:      34078  HIT:      21991  MISS:      12087
L2C PREFETCH  ACCESS:     599259  HIT:     578180  MISS:      21079
L2C WRITEBACK ACCESS:      43085  HIT:      42991  MISS:         94
L2C PREFETCH  REQUESTED:     454635  ISSUED:     454077  USEFUL:       8965  USELESS:      12375
L2C AVERAGE MISS LATENCY: 112.2 cycles
LLC TOTAL     ACCESS:      98783  HIT:      69782  MISS:      29001
LLC LOAD      ACCESS:       5218  HIT:       3022  MISS:       2196
LLC RFO       ACCESS:      12087  HIT:        470  MISS:      11617
LLC PREFETCH  ACCESS:      67857  HIT:      52739  MISS:      15118
LLC WRITEBACK ACCESS:      13621  HIT:      13551  MISS:         70
LLC PREFETCH  REQUESTED:          0  ISSUED:          0  USEFUL:       1617  USELESS:      13935
LLC AVERAGE MISS LATENCY: 166.313 cycles
Major fault: 0 Minor fault: 1286
CPU 0 L1D next line prefetcher final stats

DRAM Statistics
 CHANNEL 0
 RQ ROW_BUFFER_HIT:       8708  ROW_BUFFER_MISS:      20223
 DBUS_CONGESTED:      12576
 WQ ROW_BUFFER_HIT:       2974  ROW_BUFFER_MISS:       9842  FULL:          0

 AVG_CONGESTED_CYCLE: 6

CPU 0 Branch Prediction Accuracy: 97.1633% MPKI: 1.73704 Average ROB Occupancy at Mispredict: 42.2302

Branch types
NOT_BRANCH: 46937921 93.8758%
BRANCH_DIRECT_JUMP: 170816 0.341632%
BRANCH_INDIRECT: 0 0%
BRANCH_CONDITIONAL: 2532774 5.06555%
BRANCH_DIRECT_CALL: 114227 0.228454%
BRANCH_INDIRECT_CALL: 64863 0.129726%
BRANCH_RETURN: 179089 0.358178%
BRANCH_OTHER: 0 0%

