Initialize SIGNATURE TABLE
ST_SET: 1
ST_WAY: 256
ST_TAG_BIT: 16
ST_TAG_MASK: ffff

Initialize PATTERN TABLE
PT_SET: 512
PT_WAY: 4
SIG_DELTA_BIT: 7
C_SIG_BIT: 4
C_DELTA_BIT: 4

Initialize PREFETCH FILTER
FILTER_SET: 1024

*** ChampSim Multicore Out-of-Order Simulator ***

Warmup Instructions: 50000000
Simulation Instructions: 50000000
Number of CPUs: 1
LLC sets: 2048
LLC ways: 16
Off-chip DRAM Size: 4096 MB Channels: 1 Width: 64-bit Data Rate: 3200 MT/s

CPU 0 runs /home/ykhodke/ChampSim/dpc3_traces/spec_gobmk_001.champsimtrace.xz
LHT KB: 126.25
SCC KB: 1.56
Total KB: 127.81
CPU 0 L1D next line prefetcher
Heartbeat CPU 0 instructions: 10000003 cycles: 3507321 heartbeat IPC: 2.85118 cumulative IPC: 2.85118 (Simulation time: 0 hr 2 min 23 sec) 
Heartbeat CPU 0 instructions: 20000002 cycles: 6987822 heartbeat IPC: 2.87315 cumulative IPC: 2.86212 (Simulation time: 0 hr 4 min 44 sec) 
Heartbeat CPU 0 instructions: 30000002 cycles: 10507132 heartbeat IPC: 2.84147 cumulative IPC: 2.8552 (Simulation time: 0 hr 7 min 1 sec) 
Heartbeat CPU 0 instructions: 40000001 cycles: 14026446 heartbeat IPC: 2.84146 cumulative IPC: 2.85176 (Simulation time: 0 hr 9 min 14 sec) 
Heartbeat CPU 0 instructions: 50000001 cycles: 17566839 heartbeat IPC: 2.82455 cumulative IPC: 2.84627 (Simulation time: 0 hr 11 min 28 sec) 

Warmup complete CPU 0 instructions: 50000001 cycles: 17566839 (Simulation time: 0 hr 11 min 28 sec) 

Heartbeat CPU 0 instructions: 60000000 cycles: 26364996 heartbeat IPC: 1.1366 cumulative IPC: 1.1366 (Simulation time: 0 hr 13 min 24 sec) 
Heartbeat CPU 0 instructions: 70000002 cycles: 34809030 heartbeat IPC: 1.18427 cumulative IPC: 1.15995 (Simulation time: 0 hr 15 min 21 sec) 
Heartbeat CPU 0 instructions: 80000003 cycles: 43663332 heartbeat IPC: 1.12939 cumulative IPC: 1.14958 (Simulation time: 0 hr 17 min 15 sec) 
Heartbeat CPU 0 instructions: 90000001 cycles: 52194694 heartbeat IPC: 1.17215 cumulative IPC: 1.15514 (Simulation time: 0 hr 19 min 9 sec) 
Heartbeat CPU 0 instructions: 100000003 cycles: 61045734 heartbeat IPC: 1.12981 cumulative IPC: 1.14998 (Simulation time: 0 hr 21 min 5 sec) 
Finished CPU 0 instructions: 50000002 cycles: 43478895 cumulative IPC: 1.14998 (Simulation time: 0 hr 21 min 5 sec) 

ChampSim completed all CPUs

Region of Interest Statistics

CPU 0 cumulative IPC: 1.14998 instructions: 50000002 cycles: 43478895
L1D TOTAL     ACCESS:   18009837  HIT:   17630262  MISS:     379575
L1D LOAD      ACCESS:    7223632  HIT:    7088192  MISS:     135440
L1D RFO       ACCESS:    3701999  HIT:    3597432  MISS:     104567
L1D PREFETCH  ACCESS:    7084206  HIT:    6944638  MISS:     139568
L1D WRITEBACK ACCESS:          0  HIT:          0  MISS:          0
L1D PREFETCH  REQUESTED:    7229127  ISSUED:    7146300  USEFUL:      44838  USELESS:      94735
L1D AVERAGE MISS LATENCY: 33.0422 cycles
L1I TOTAL     ACCESS:   18364183  HIT:   17336053  MISS:    1028130
L1I LOAD      ACCESS:    8948769  HIT:    8795925  MISS:     152844
L1I RFO       ACCESS:          0  HIT:          0  MISS:          0
L1I PREFETCH  ACCESS:    9415414  HIT:    8540128  MISS:     875286
L1I WRITEBACK ACCESS:          0  HIT:          0  MISS:          0
L1I PREFETCH  REQUESTED:   10497286  ISSUED:   10497286  USEFUL:     498102  USELESS:     377152
L1I AVERAGE MISS LATENCY: 12.9272 cycles
L2C TOTAL     ACCESS:    1978806  HIT:    1850861  MISS:     127945
L2C LOAD      ACCESS:     138828  HIT:     104641  MISS:      34187
L2C RFO       ACCESS:     104201  HIT:      68471  MISS:      35730
L2C PREFETCH  ACCESS:    1596469  HIT:    1538489  MISS:      57980
L2C WRITEBACK ACCESS:     139308  HIT:     139260  MISS:         48
L2C PREFETCH  REQUESTED:     769496  ISSUED:     769489  USEFUL:       4292  USELESS:      54058
L2C AVERAGE MISS LATENCY: 62.1932 cycles
LLC TOTAL     ACCESS:     267421  HIT:     235094  MISS:      32327
LLC LOAD      ACCESS:      34187  HIT:      26146  MISS:       8041
LLC RFO       ACCESS:      35730  HIT:      30505  MISS:       5225
LLC PREFETCH  ACCESS:     150852  HIT:     132030  MISS:      18822
LLC WRITEBACK ACCESS:      46652  HIT:      46413  MISS:        239
LLC PREFETCH  REQUESTED:          0  ISSUED:          0  USEFUL:       1215  USELESS:      16669
LLC AVERAGE MISS LATENCY: 177.409 cycles
Major fault: 0 Minor fault: 4165
CPU 0 L1D next line prefetcher final stats

DRAM Statistics
 CHANNEL 0
 RQ ROW_BUFFER_HIT:       3698  ROW_BUFFER_MISS:      28388
 DBUS_CONGESTED:      17444
 WQ ROW_BUFFER_HIT:       1027  ROW_BUFFER_MISS:      13473  FULL:          0

 AVG_CONGESTED_CYCLE: 4

CPU 0 Branch Prediction Accuracy: 94.7729% MPKI: 9.72684 Average ROB Occupancy at Mispredict: 53.6875

Branch types
NOT_BRANCH: 40695383 81.3908%
BRANCH_DIRECT_JUMP: 422107 0.844214%
BRANCH_INDIRECT: 65 0.00013%
BRANCH_CONDITIONAL: 8105005 16.21%
BRANCH_DIRECT_CALL: 374913 0.749826%
BRANCH_INDIRECT_CALL: 13657 0.027314%
BRANCH_RETURN: 388556 0.777112%
BRANCH_OTHER: 0 0%

