Initialize SIGNATURE TABLE
ST_SET: 1
ST_WAY: 256
ST_TAG_BIT: 16
ST_TAG_MASK: ffff

Initialize PATTERN TABLE
PT_SET: 512
PT_WAY: 4
SIG_DELTA_BIT: 7
C_SIG_BIT: 4
C_DELTA_BIT: 4

Initialize PREFETCH FILTER
FILTER_SET: 1024

*** ChampSim Multicore Out-of-Order Simulator ***

Warmup Instructions: 50000000
Simulation Instructions: 50000000
Number of CPUs: 1
LLC sets: 2048
LLC ways: 16
Off-chip DRAM Size: 4096 MB Channels: 1 Width: 64-bit Data Rate: 3200 MT/s

CPU 0 runs /home/ykhodke/ChampSim/dpc3_traces/spec_gcc_001.champsimtrace.xz
L1I D-JOLT instruction prefetcher has been constructed!
CPU 0 L1D next line prefetcher
Heartbeat CPU 0 instructions: 10000003 cycles: 3218997 heartbeat IPC: 3.10656 cumulative IPC: 3.10656 (Simulation time: 0 hr 2 min 31 sec) 
Heartbeat CPU 0 instructions: 20000002 cycles: 6463559 heartbeat IPC: 3.08208 cumulative IPC: 3.09427 (Simulation time: 0 hr 5 min 6 sec) 
Heartbeat CPU 0 instructions: 30000000 cycles: 9664066 heartbeat IPC: 3.1245 cumulative IPC: 3.10428 (Simulation time: 0 hr 7 min 38 sec) 
Heartbeat CPU 0 instructions: 40000001 cycles: 12904882 heartbeat IPC: 3.08564 cumulative IPC: 3.0996 (Simulation time: 0 hr 10 min 12 sec) 
Heartbeat CPU 0 instructions: 50000001 cycles: 16144952 heartbeat IPC: 3.08635 cumulative IPC: 3.09694 (Simulation time: 0 hr 12 min 46 sec) 

Warmup complete CPU 0 instructions: 50000001 cycles: 16144952 (Simulation time: 0 hr 12 min 46 sec) 

Heartbeat CPU 0 instructions: 60000000 cycles: 23997103 heartbeat IPC: 1.27354 cumulative IPC: 1.27354 (Simulation time: 0 hr 15 min 12 sec) 
Heartbeat CPU 0 instructions: 70000002 cycles: 31916699 heartbeat IPC: 1.26269 cumulative IPC: 1.26809 (Simulation time: 0 hr 18 min 7 sec) 
Heartbeat CPU 0 instructions: 80000000 cycles: 39454095 heartbeat IPC: 1.32672 cumulative IPC: 1.28705 (Simulation time: 0 hr 20 min 52 sec) 
Heartbeat CPU 0 instructions: 90000001 cycles: 47356596 heartbeat IPC: 1.26542 cumulative IPC: 1.28157 (Simulation time: 0 hr 23 min 23 sec) 
Heartbeat CPU 0 instructions: 100000000 cycles: 55558599 heartbeat IPC: 1.21921 cumulative IPC: 1.2686 (Simulation time: 0 hr 25 min 43 sec) 
Finished CPU 0 instructions: 50000000 cycles: 39413651 cumulative IPC: 1.2686 (Simulation time: 0 hr 25 min 43 sec) 

ChampSim completed all CPUs

Region of Interest Statistics

CPU 0 cumulative IPC: 1.2686 instructions: 50000000 cycles: 39413651
L1D TOTAL     ACCESS:   19321423  HIT:   18216270  MISS:    1105153
L1D LOAD      ACCESS:    7231856  HIT:    6752438  MISS:     479418
L1D RFO       ACCESS:    5116885  HIT:    5037216  MISS:      79669
L1D PREFETCH  ACCESS:    6972682  HIT:    6426616  MISS:     546066
L1D WRITEBACK ACCESS:          0  HIT:          0  MISS:          0
L1D PREFETCH  REQUESTED:    7275314  ISSUED:    7177489  USEFUL:     275852  USELESS:     270227
L1D AVERAGE MISS LATENCY: 25.5837 cycles
L1I TOTAL     ACCESS:   13700583  HIT:   12990058  MISS:     710525
L1I LOAD      ACCESS:    9293720  HIT:    9237288  MISS:      56432
L1I RFO       ACCESS:          0  HIT:          0  MISS:          0
L1I PREFETCH  ACCESS:    4406863  HIT:    3752770  MISS:     654093
L1I WRITEBACK ACCESS:          0  HIT:          0  MISS:          0
L1I PREFETCH  REQUESTED:    4521464  ISSUED:    4516086  USEFUL:     369419  USELESS:     284729
L1I AVERAGE MISS LATENCY: 18.5572 cycles
L2C TOTAL     ACCESS:    3024921  HIT:    2775375  MISS:     249546
L2C LOAD      ACCESS:     503553  HIT:     414250  MISS:      89303
L2C RFO       ACCESS:      74992  HIT:      36760  MISS:      38232
L2C PREFETCH  ACCESS:    2192624  HIT:    2070980  MISS:     121644
L2C WRITEBACK ACCESS:     253752  HIT:     253385  MISS:        367
L2C PREFETCH  REQUESTED:    1871414  ISSUED:    1871262  USEFUL:      32316  USELESS:      89073
L2C AVERAGE MISS LATENCY: 63.0761 cycles
LLC TOTAL     ACCESS:     670963  HIT:     596946  MISS:      74017
LLC LOAD      ACCESS:      89109  HIT:      77305  MISS:      11804
LLC RFO       ACCESS:      38230  HIT:      17408  MISS:      20822
LLC PREFETCH  ACCESS:     451787  HIT:     411395  MISS:      40392
LLC WRITEBACK ACCESS:      91837  HIT:      90838  MISS:        999
LLC PREFETCH  REQUESTED:          0  ISSUED:          0  USEFUL:      13748  USELESS:      28992
LLC AVERAGE MISS LATENCY: 186.362 cycles
Major fault: 0 Minor fault: 6867
CPU 0 L1D next line prefetcher final stats

DRAM Statistics
 CHANNEL 0
 RQ ROW_BUFFER_HIT:      19677  ROW_BUFFER_MISS:      53331
 DBUS_CONGESTED:      35911
 WQ ROW_BUFFER_HIT:       4318  ROW_BUFFER_MISS:      23443  FULL:          0

 AVG_CONGESTED_CYCLE: 6

CPU 0 Branch Prediction Accuracy: 95.8872% MPKI: 9.67286 Average ROB Occupancy at Mispredict: 67.0235

Branch types
NOT_BRANCH: 38240102 76.4802%
BRANCH_DIRECT_JUMP: 653296 1.30659%
BRANCH_INDIRECT: 37098 0.074196%
BRANCH_CONDITIONAL: 8897819 17.7956%
BRANCH_DIRECT_CALL: 992620 1.98524%
BRANCH_INDIRECT_CALL: 93046 0.186092%
BRANCH_RETURN: 1085674 2.17135%
BRANCH_OTHER: 0 0%

