Initialize SIGNATURE TABLE
ST_SET: 1
ST_WAY: 256
ST_TAG_BIT: 16
ST_TAG_MASK: ffff

Initialize PATTERN TABLE
PT_SET: 512
PT_WAY: 4
SIG_DELTA_BIT: 7
C_SIG_BIT: 4
C_DELTA_BIT: 4

Initialize PREFETCH FILTER
FILTER_SET: 1024

*** ChampSim Multicore Out-of-Order Simulator ***

Warmup Instructions: 50000000
Simulation Instructions: 50000000
Number of CPUs: 1
LLC sets: 2048
LLC ways: 16
Off-chip DRAM Size: 4096 MB Channels: 1 Width: 64-bit Data Rate: 3200 MT/s

CPU 0 runs /home/ykhodke/ChampSim/dpc3_traces/spec_perlbench_001.champsimtrace.xz
LHT KB: 126.25
SCC KB: 1.56
Total KB: 127.81
CPU 0 L1D next line prefetcher
Heartbeat CPU 0 instructions: 10000000 cycles: 3275727 heartbeat IPC: 3.05276 cumulative IPC: 3.05276 (Simulation time: 0 hr 3 min 28 sec) 
Heartbeat CPU 0 instructions: 20000000 cycles: 6540099 heartbeat IPC: 3.06338 cumulative IPC: 3.05806 (Simulation time: 0 hr 6 min 40 sec) 
Heartbeat CPU 0 instructions: 30000002 cycles: 9856407 heartbeat IPC: 3.0154 cumulative IPC: 3.04371 (Simulation time: 0 hr 10 min 17 sec) 
Heartbeat CPU 0 instructions: 40000002 cycles: 13111754 heartbeat IPC: 3.07187 cumulative IPC: 3.0507 (Simulation time: 0 hr 13 min 38 sec) 
Heartbeat CPU 0 instructions: 50000001 cycles: 16385495 heartbeat IPC: 3.05461 cumulative IPC: 3.05148 (Simulation time: 0 hr 16 min 46 sec) 

Warmup complete CPU 0 instructions: 50000001 cycles: 16385495 (Simulation time: 0 hr 16 min 46 sec) 

Heartbeat CPU 0 instructions: 60000001 cycles: 24628149 heartbeat IPC: 1.2132 cumulative IPC: 1.2132 (Simulation time: 0 hr 19 min 27 sec) 
Heartbeat CPU 0 instructions: 70000003 cycles: 32753281 heartbeat IPC: 1.23075 cumulative IPC: 1.22191 (Simulation time: 0 hr 22 min 25 sec) 
Heartbeat CPU 0 instructions: 80000000 cycles: 41192232 heartbeat IPC: 1.18498 cumulative IPC: 1.20935 (Simulation time: 0 hr 24 min 52 sec) 
Heartbeat CPU 0 instructions: 90000000 cycles: 46905848 heartbeat IPC: 1.75021 cumulative IPC: 1.3106 (Simulation time: 0 hr 26 min 50 sec) 
Heartbeat CPU 0 instructions: 100000002 cycles: 52761731 heartbeat IPC: 1.70768 cumulative IPC: 1.37452 (Simulation time: 0 hr 28 min 15 sec) 
Finished CPU 0 instructions: 50000001 cycles: 36376236 cumulative IPC: 1.37452 (Simulation time: 0 hr 28 min 15 sec) 

ChampSim completed all CPUs

Region of Interest Statistics

CPU 0 cumulative IPC: 1.37452 instructions: 50000001 cycles: 36376236
L1D TOTAL     ACCESS:   20705915  HIT:   20290824  MISS:     415091
L1D LOAD      ACCESS:    7182406  HIT:    6968773  MISS:     213633
L1D RFO       ACCESS:    6542222  HIT:    6523716  MISS:      18506
L1D PREFETCH  ACCESS:    6981287  HIT:    6798335  MISS:     182952
L1D WRITEBACK ACCESS:          0  HIT:          0  MISS:          0
L1D PREFETCH  REQUESTED:    7198280  ISSUED:    7082100  USEFUL:      55269  USELESS:     127678
L1D AVERAGE MISS LATENCY: 58.5573 cycles
L1I TOTAL     ACCESS:   16340021  HIT:   15754314  MISS:     585707
L1I LOAD      ACCESS:    9135626  HIT:    9005564  MISS:     130062
L1I RFO       ACCESS:          0  HIT:          0  MISS:          0
L1I PREFETCH  ACCESS:    7204395  HIT:    6748750  MISS:     455645
L1I WRITEBACK ACCESS:          0  HIT:          0  MISS:          0
L1I PREFETCH  REQUESTED:    8215916  ISSUED:    8215916  USEFUL:     282555  USELESS:     173097
L1I AVERAGE MISS LATENCY: 13.9961 cycles
L2C TOTAL     ACCESS:    1358493  HIT:    1188383  MISS:     170110
L2C LOAD      ACCESS:     221046  HIT:     144442  MISS:      76604
L2C RFO       ACCESS:      18268  HIT:      12715  MISS:       5553
L2C PREFETCH  ACCESS:    1040230  HIT:     952798  MISS:      87432
L2C WRITEBACK ACCESS:      78949  HIT:      78428  MISS:        521
L2C PREFETCH  REQUESTED:     711087  ISSUED:     711087  USEFUL:       5380  USELESS:      82037
L2C AVERAGE MISS LATENCY: 119.639 cycles
LLC TOTAL     ACCESS:     373458  HIT:     233946  MISS:     139512
LLC LOAD      ACCESS:      76603  HIT:      28898  MISS:      47705
LLC RFO       ACCESS:       5553  HIT:       2483  MISS:       3070
LLC PREFETCH  ACCESS:     265491  HIT:     177188  MISS:      88303
LLC WRITEBACK ACCESS:      25811  HIT:      25377  MISS:        434
LLC PREFETCH  REQUESTED:          0  ISSUED:          0  USEFUL:      13064  USELESS:      75568
LLC AVERAGE MISS LATENCY: 160.271 cycles
Major fault: 0 Minor fault: 6370
CPU 0 L1D next line prefetcher final stats

DRAM Statistics
 CHANNEL 0
 RQ ROW_BUFFER_HIT:      32059  ROW_BUFFER_MISS:     107017
 DBUS_CONGESTED:      57940
 WQ ROW_BUFFER_HIT:       4210  ROW_BUFFER_MISS:      13023  FULL:          0

 AVG_CONGESTED_CYCLE: 4

CPU 0 Branch Prediction Accuracy: 98.7418% MPKI: 2.47758 Average ROB Occupancy at Mispredict: 78.6844

Branch types
NOT_BRANCH: 40154100 80.3082%
BRANCH_DIRECT_JUMP: 817094 1.63419%
BRANCH_INDIRECT: 303787 0.607574%
BRANCH_CONDITIONAL: 7492103 14.9842%
BRANCH_DIRECT_CALL: 471777 0.943554%
BRANCH_INDIRECT_CALL: 144546 0.289092%
BRANCH_RETURN: 616324 1.23265%
BRANCH_OTHER: 0 0%

