Initialize SIGNATURE TABLE
ST_SET: 1
ST_WAY: 256
ST_TAG_BIT: 16
ST_TAG_MASK: ffff

Initialize PATTERN TABLE
PT_SET: 512
PT_WAY: 4
SIG_DELTA_BIT: 7
C_SIG_BIT: 4
C_DELTA_BIT: 4

Initialize PREFETCH FILTER
FILTER_SET: 1024

*** ChampSim Multicore Out-of-Order Simulator ***

Warmup Instructions: 50000000
Simulation Instructions: 50000000
Number of CPUs: 1
LLC sets: 2048
LLC ways: 16
Off-chip DRAM Size: 4096 MB Channels: 1 Width: 64-bit Data Rate: 3200 MT/s

CPU 0 runs /home/ykhodke/ChampSim/dpc3_traces/spec_gcc_003.champsimtrace.xz
L1I D-JOLT instruction prefetcher has been constructed!
CPU 0 L1D next line prefetcher
Heartbeat CPU 0 instructions: 10000001 cycles: 3478684 heartbeat IPC: 2.87465 cumulative IPC: 2.87465 (Simulation time: 0 hr 3 min 22 sec) 
Heartbeat CPU 0 instructions: 20000000 cycles: 6945598 heartbeat IPC: 2.88441 cumulative IPC: 2.87952 (Simulation time: 0 hr 6 min 19 sec) 
Heartbeat CPU 0 instructions: 30000002 cycles: 10385587 heartbeat IPC: 2.90699 cumulative IPC: 2.88862 (Simulation time: 0 hr 9 min 26 sec) 
Heartbeat CPU 0 instructions: 40000000 cycles: 13851734 heartbeat IPC: 2.88505 cumulative IPC: 2.88773 (Simulation time: 0 hr 12 min 19 sec) 
Heartbeat CPU 0 instructions: 50000001 cycles: 17159598 heartbeat IPC: 3.0231 cumulative IPC: 2.91382 (Simulation time: 0 hr 15 min 17 sec) 

Warmup complete CPU 0 instructions: 50000001 cycles: 17159598 (Simulation time: 0 hr 15 min 17 sec) 

Heartbeat CPU 0 instructions: 60000000 cycles: 56939657 heartbeat IPC: 0.251382 cumulative IPC: 0.251382 (Simulation time: 0 hr 20 min 54 sec) 
Heartbeat CPU 0 instructions: 70000000 cycles: 99754344 heartbeat IPC: 0.233565 cumulative IPC: 0.242146 (Simulation time: 0 hr 26 min 13 sec) 
Heartbeat CPU 0 instructions: 80000002 cycles: 143525135 heartbeat IPC: 0.228463 cumulative IPC: 0.237407 (Simulation time: 0 hr 29 min 23 sec) 
Heartbeat CPU 0 instructions: 90000002 cycles: 180578987 heartbeat IPC: 0.269877 cumulative IPC: 0.244769 (Simulation time: 0 hr 30 min 8 sec) 
Heartbeat CPU 0 instructions: 100000001 cycles: 226998103 heartbeat IPC: 0.215428 cumulative IPC: 0.238278 (Simulation time: 0 hr 30 min 45 sec) 
Finished CPU 0 instructions: 50000000 cycles: 209838505 cumulative IPC: 0.238278 (Simulation time: 0 hr 30 min 45 sec) 

ChampSim completed all CPUs

Region of Interest Statistics

CPU 0 cumulative IPC: 0.238278 instructions: 50000000 cycles: 209838505
L1D TOTAL     ACCESS:   16825597  HIT:   11101262  MISS:    5724335
L1D LOAD      ACCESS:    4555982  HIT:    4172664  MISS:     383318
L1D RFO       ACCESS:    8203239  HIT:    3151569  MISS:    5051670
L1D PREFETCH  ACCESS:    4066376  HIT:    3777029  MISS:     289347
L1D WRITEBACK ACCESS:          0  HIT:          0  MISS:          0
L1D PREFETCH  REQUESTED:    4573217  ISSUED:    4513382  USEFUL:     151984  USELESS:     137543
L1D AVERAGE MISS LATENCY: 498.785 cycles
L1I TOTAL     ACCESS:   15169703  HIT:   13986016  MISS:    1183687
L1I LOAD      ACCESS:   11272467  HIT:   11188648  MISS:      83819
L1I RFO       ACCESS:          0  HIT:          0  MISS:          0
L1I PREFETCH  ACCESS:    3897236  HIT:    2797368  MISS:    1099868
L1I WRITEBACK ACCESS:          0  HIT:          0  MISS:          0
L1I PREFETCH  REQUESTED:    4414024  ISSUED:    4287953  USEFUL:     745253  USELESS:     354601
L1I AVERAGE MISS LATENCY: 64.1875 cycles
L2C TOTAL     ACCESS:   12427926  HIT:    6353850  MISS:    6074076
L2C LOAD      ACCESS:     230109  HIT:      62060  MISS:     168049
L2C RFO       ACCESS:    5049801  HIT:       6448  MISS:    5043353
L2C PREFETCH  ACCESS:    1990152  HIT:    1128092  MISS:     862060
L2C WRITEBACK ACCESS:    5157864  HIT:    5157250  MISS:        614
L2C PREFETCH  REQUESTED:    1912788  ISSUED:    1912771  USEFUL:      22911  USELESS:     836205
L2C AVERAGE MISS LATENCY: 470.6 cycles
LLC TOTAL     ACCESS:   11954427  HIT:    7194967  MISS:    4759460
LLC LOAD      ACCESS:     167990  HIT:     126078  MISS:      41912
LLC RFO       ACCESS:    5043353  HIT:     644670  MISS:    4398683
LLC PREFETCH  ACCESS:    1609282  HIT:    1290417  MISS:     318865
LLC WRITEBACK ACCESS:    5133802  HIT:    5133802  MISS:          0
LLC PREFETCH  REQUESTED:          0  ISSUED:          0  USEFUL:      11334  USELESS:     307496
LLC AVERAGE MISS LATENCY: 572.586 cycles
Major fault: 0 Minor fault: 2819
CPU 0 L1D next line prefetcher final stats

DRAM Statistics
 CHANNEL 0
 RQ ROW_BUFFER_HIT:    1452432  ROW_BUFFER_MISS:    3306724
 DBUS_CONGESTED:    8196493
 WQ ROW_BUFFER_HIT:    1175432  ROW_BUFFER_MISS:    3252806  FULL:          0

 AVG_CONGESTED_CYCLE: 6

CPU 0 Branch Prediction Accuracy: 99.665% MPKI: 0.78342 Average ROB Occupancy at Mispredict: 120.144

Branch types
NOT_BRANCH: 38305856 76.6117%
BRANCH_DIRECT_JUMP: 384281 0.768562%
BRANCH_INDIRECT: 71949 0.143898%
BRANCH_CONDITIONAL: 9879826 19.7597%
BRANCH_DIRECT_CALL: 650586 1.30117%
BRANCH_INDIRECT_CALL: 28456 0.056912%
BRANCH_RETURN: 679046 1.35809%
BRANCH_OTHER: 0 0%

