Initialize SIGNATURE TABLE
ST_SET: 1
ST_WAY: 256
ST_TAG_BIT: 16
ST_TAG_MASK: ffff

Initialize PATTERN TABLE
PT_SET: 512
PT_WAY: 4
SIG_DELTA_BIT: 7
C_SIG_BIT: 4
C_DELTA_BIT: 4

Initialize PREFETCH FILTER
FILTER_SET: 1024

*** ChampSim Multicore Out-of-Order Simulator ***

Warmup Instructions: 50000000
Simulation Instructions: 50000000
Number of CPUs: 1
LLC sets: 2048
LLC ways: 16
Off-chip DRAM Size: 4096 MB Channels: 1 Width: 64-bit Data Rate: 3200 MT/s

CPU 0 runs /home/ykhodke/ChampSim/dpc3_traces/spec_x264_001.champsimtrace.xz
L1I D-JOLT instruction prefetcher has been constructed!
CPU 0 L1D next line prefetcher
Heartbeat CPU 0 instructions: 10000002 cycles: 3059612 heartbeat IPC: 3.26839 cumulative IPC: 3.26839 (Simulation time: 0 hr 1 min 37 sec) 
Heartbeat CPU 0 instructions: 20000002 cycles: 6109341 heartbeat IPC: 3.27898 cumulative IPC: 3.27368 (Simulation time: 0 hr 3 min 11 sec) 
Heartbeat CPU 0 instructions: 30000002 cycles: 9144589 heartbeat IPC: 3.29462 cumulative IPC: 3.28063 (Simulation time: 0 hr 4 min 46 sec) 
Heartbeat CPU 0 instructions: 40000000 cycles: 12188642 heartbeat IPC: 3.28509 cumulative IPC: 3.28174 (Simulation time: 0 hr 6 min 23 sec) 
Heartbeat CPU 0 instructions: 50000000 cycles: 15231507 heartbeat IPC: 3.28638 cumulative IPC: 3.28267 (Simulation time: 0 hr 8 min 3 sec) 

Warmup complete CPU 0 instructions: 50000004 cycles: 15231508 (Simulation time: 0 hr 8 min 3 sec) 

Heartbeat CPU 0 instructions: 60000002 cycles: 21161216 heartbeat IPC: 1.68642 cumulative IPC: 1.68642 (Simulation time: 0 hr 9 min 10 sec) 
Heartbeat CPU 0 instructions: 70000000 cycles: 27071749 heartbeat IPC: 1.69189 cumulative IPC: 1.68915 (Simulation time: 0 hr 10 min 42 sec) 
Heartbeat CPU 0 instructions: 80000003 cycles: 33130980 heartbeat IPC: 1.65037 cumulative IPC: 1.67603 (Simulation time: 0 hr 12 min 13 sec) 
Heartbeat CPU 0 instructions: 90000002 cycles: 39166630 heartbeat IPC: 1.65682 cumulative IPC: 1.67118 (Simulation time: 0 hr 13 min 42 sec) 
Heartbeat CPU 0 instructions: 100000002 cycles: 45063170 heartbeat IPC: 1.69591 cumulative IPC: 1.67607 (Simulation time: 0 hr 15 min 12 sec) 
Finished CPU 0 instructions: 50000002 cycles: 29831663 cumulative IPC: 1.67607 (Simulation time: 0 hr 15 min 12 sec) 

ChampSim completed all CPUs

Region of Interest Statistics

CPU 0 cumulative IPC: 1.67607 instructions: 50000002 cycles: 29831663
L1D TOTAL     ACCESS:   12969211  HIT:   12808315  MISS:     160896
L1D LOAD      ACCESS:    5096549  HIT:    5041485  MISS:      55064
L1D RFO       ACCESS:    2881065  HIT:    2846739  MISS:      34326
L1D PREFETCH  ACCESS:    4991597  HIT:    4920091  MISS:      71506
L1D WRITEBACK ACCESS:          0  HIT:          0  MISS:          0
L1D PREFETCH  REQUESTED:    5113345  ISSUED:    5045440  USEFUL:      25729  USELESS:      45587
L1D AVERAGE MISS LATENCY: 40.6842 cycles
L1I TOTAL     ACCESS:    9585452  HIT:    9177910  MISS:     407542
L1I LOAD      ACCESS:    8037332  HIT:    8030686  MISS:       6646
L1I RFO       ACCESS:          0  HIT:          0  MISS:          0
L1I PREFETCH  ACCESS:    1548120  HIT:    1147224  MISS:     400896
L1I WRITEBACK ACCESS:          0  HIT:          0  MISS:          0
L1I PREFETCH  REQUESTED:    1664521  ISSUED:    1639471  USEFUL:     303171  USELESS:      97763
L1I AVERAGE MISS LATENCY: 14.9697 cycles
L2C TOTAL     ACCESS:     870026  HIT:     831483  MISS:      38543
L2C LOAD      ACCESS:      59597  HIT:      54321  MISS:       5276
L2C RFO       ACCESS:      34135  HIT:      22080  MISS:      12055
L2C PREFETCH  ACCESS:     733193  HIT:     712059  MISS:      21134
L2C WRITEBACK ACCESS:      43101  HIT:      43023  MISS:         78
L2C PREFETCH  REQUESTED:     661479  ISSUED:     656687  USEFUL:       8915  USELESS:      12446
L2C AVERAGE MISS LATENCY: 107.409 cycles
LLC TOTAL     ACCESS:     122457  HIT:      93441  MISS:      29016
LLC LOAD      ACCESS:       5276  HIT:       3135  MISS:       2141
LLC RFO       ACCESS:      12055  HIT:        441  MISS:      11614
LLC PREFETCH  ACCESS:      91514  HIT:      76315  MISS:      15199
LLC WRITEBACK ACCESS:      13612  HIT:      13550  MISS:         62
LLC PREFETCH  REQUESTED:          0  ISSUED:          0  USEFUL:       1691  USELESS:      13943
LLC AVERAGE MISS LATENCY: 166.646 cycles
Major fault: 0 Minor fault: 1285
CPU 0 L1D next line prefetcher final stats

DRAM Statistics
 CHANNEL 0
 RQ ROW_BUFFER_HIT:       8752  ROW_BUFFER_MISS:      20202
 DBUS_CONGESTED:      12329
 WQ ROW_BUFFER_HIT:       2893  ROW_BUFFER_MISS:       9826  FULL:          0

 AVG_CONGESTED_CYCLE: 6

CPU 0 Branch Prediction Accuracy: 97.1633% MPKI: 1.73704 Average ROB Occupancy at Mispredict: 43.128

Branch types
NOT_BRANCH: 46937921 93.8758%
BRANCH_DIRECT_JUMP: 170816 0.341632%
BRANCH_INDIRECT: 0 0%
BRANCH_CONDITIONAL: 2532774 5.06555%
BRANCH_DIRECT_CALL: 114227 0.228454%
BRANCH_INDIRECT_CALL: 64863 0.129726%
BRANCH_RETURN: 179089 0.358178%
BRANCH_OTHER: 0 0%

