Initialize SIGNATURE TABLE
ST_SET: 1
ST_WAY: 256
ST_TAG_BIT: 16
ST_TAG_MASK: ffff

Initialize PATTERN TABLE
PT_SET: 512
PT_WAY: 4
SIG_DELTA_BIT: 7
C_SIG_BIT: 4
C_DELTA_BIT: 4

Initialize PREFETCH FILTER
FILTER_SET: 1024

*** ChampSim Multicore Out-of-Order Simulator ***

Warmup Instructions: 50000000
Simulation Instructions: 50000000
Number of CPUs: 1
LLC sets: 2048
LLC ways: 16
Off-chip DRAM Size: 4096 MB Channels: 1 Width: 64-bit Data Rate: 3200 MT/s

CPU 0 runs /home/ykhodke/ChampSim/dpc3_traces/spec_gcc_001.champsimtrace.xz
LHT KB: 126.25
SCC KB: 1.56
Total KB: 127.81
CPU 0 L1D next line prefetcher
Heartbeat CPU 0 instructions: 10000003 cycles: 3219989 heartbeat IPC: 3.1056 cumulative IPC: 3.1056 (Simulation time: 0 hr 2 min 44 sec) 
Heartbeat CPU 0 instructions: 20000002 cycles: 6465505 heartbeat IPC: 3.08117 cumulative IPC: 3.09334 (Simulation time: 0 hr 5 min 40 sec) 
Heartbeat CPU 0 instructions: 30000000 cycles: 9666242 heartbeat IPC: 3.12428 cumulative IPC: 3.10358 (Simulation time: 0 hr 8 min 41 sec) 
Heartbeat CPU 0 instructions: 40000001 cycles: 12909033 heartbeat IPC: 3.08376 cumulative IPC: 3.09861 (Simulation time: 0 hr 11 min 35 sec) 
Heartbeat CPU 0 instructions: 50000001 cycles: 16150240 heartbeat IPC: 3.08527 cumulative IPC: 3.09593 (Simulation time: 0 hr 14 min 28 sec) 

Warmup complete CPU 0 instructions: 50000001 cycles: 16150240 (Simulation time: 0 hr 14 min 28 sec) 

Heartbeat CPU 0 instructions: 60000000 cycles: 23821426 heartbeat IPC: 1.30358 cumulative IPC: 1.30358 (Simulation time: 0 hr 17 min 8 sec) 
Heartbeat CPU 0 instructions: 70000002 cycles: 31643393 heartbeat IPC: 1.27845 cumulative IPC: 1.29089 (Simulation time: 0 hr 19 min 53 sec) 
Heartbeat CPU 0 instructions: 80000000 cycles: 39169355 heartbeat IPC: 1.32873 cumulative IPC: 1.30326 (Simulation time: 0 hr 22 min 31 sec) 
Heartbeat CPU 0 instructions: 90000001 cycles: 46998979 heartbeat IPC: 1.2772 cumulative IPC: 1.29665 (Simulation time: 0 hr 25 min 12 sec) 
Heartbeat CPU 0 instructions: 100000000 cycles: 55081340 heartbeat IPC: 1.23726 cumulative IPC: 1.28432 (Simulation time: 0 hr 27 min 36 sec) 
Finished CPU 0 instructions: 50000000 cycles: 38931104 cumulative IPC: 1.28432 (Simulation time: 0 hr 27 min 36 sec) 

ChampSim completed all CPUs

Region of Interest Statistics

CPU 0 cumulative IPC: 1.28432 instructions: 50000000 cycles: 38931104
L1D TOTAL     ACCESS:   19308446  HIT:   18203297  MISS:    1105149
L1D LOAD      ACCESS:    7227586  HIT:    6747345  MISS:     480241
L1D RFO       ACCESS:    5115275  HIT:    5035550  MISS:      79725
L1D PREFETCH  ACCESS:    6965585  HIT:    6420402  MISS:     545183
L1D WRITEBACK ACCESS:          0  HIT:          0  MISS:          0
L1D PREFETCH  REQUESTED:    7272695  ISSUED:    7174984  USEFUL:     274970  USELESS:     270226
L1D AVERAGE MISS LATENCY: 26.785 cycles
L1I TOTAL     ACCESS:   20901708  HIT:   19805297  MISS:    1096411
L1I LOAD      ACCESS:    9296974  HIT:    9223965  MISS:      73009
L1I RFO       ACCESS:          0  HIT:          0  MISS:          0
L1I PREFETCH  ACCESS:   11604734  HIT:   10581332  MISS:    1023402
L1I WRITEBACK ACCESS:          0  HIT:          0  MISS:          0
L1I PREFETCH  REQUESTED:   13805193  ISSUED:   13805180  USEFUL:     406150  USELESS:     617200
L1I AVERAGE MISS LATENCY: 18.0764 cycles
L2C TOTAL     ACCESS:    3465636  HIT:    3162090  MISS:     303546
L2C LOAD      ACCESS:     470408  HIT:     387473  MISS:      82935
L2C RFO       ACCESS:      74987  HIT:      35174  MISS:      39813
L2C PREFETCH  ACCESS:    2666478  HIT:    2486189  MISS:     180289
L2C WRITEBACK ACCESS:     253763  HIT:     253254  MISS:        509
L2C PREFETCH  REQUESTED:    1998379  ISSUED:    1998073  USEFUL:      34932  USELESS:     143947
L2C AVERAGE MISS LATENCY: 64.2493 cycles
LLC TOTAL     ACCESS:     752978  HIT:     675688  MISS:      77290
LLC LOAD      ACCESS:      82741  HIT:      76236  MISS:       6505
LLC RFO       ACCESS:      39811  HIT:      18263  MISS:      21548
LLC PREFETCH  ACCESS:     529751  HIT:     481194  MISS:      48557
LLC WRITEBACK ACCESS:     100675  HIT:      99995  MISS:        680
LLC PREFETCH  REQUESTED:          0  ISSUED:          0  USEFUL:       9334  USELESS:      41073
LLC AVERAGE MISS LATENCY: 194.061 cycles
Major fault: 0 Minor fault: 6879
CPU 0 L1D next line prefetcher final stats

DRAM Statistics
 CHANNEL 0
 RQ ROW_BUFFER_HIT:      21806  ROW_BUFFER_MISS:      54802
 DBUS_CONGESTED:      44235
 WQ ROW_BUFFER_HIT:       4053  ROW_BUFFER_MISS:      25106  FULL:          0

 AVG_CONGESTED_CYCLE: 6

CPU 0 Branch Prediction Accuracy: 95.8872% MPKI: 9.67286 Average ROB Occupancy at Mispredict: 67.8894

Branch types
NOT_BRANCH: 38240102 76.4802%
BRANCH_DIRECT_JUMP: 653296 1.30659%
BRANCH_INDIRECT: 37098 0.074196%
BRANCH_CONDITIONAL: 8897819 17.7956%
BRANCH_DIRECT_CALL: 992620 1.98524%
BRANCH_INDIRECT_CALL: 93046 0.186092%
BRANCH_RETURN: 1085674 2.17135%
BRANCH_OTHER: 0 0%

