Initialize SIGNATURE TABLE
ST_SET: 1
ST_WAY: 256
ST_TAG_BIT: 16
ST_TAG_MASK: ffff

Initialize PATTERN TABLE
PT_SET: 512
PT_WAY: 4
SIG_DELTA_BIT: 7
C_SIG_BIT: 4
C_DELTA_BIT: 4

Initialize PREFETCH FILTER
FILTER_SET: 1024

*** ChampSim Multicore Out-of-Order Simulator ***

Warmup Instructions: 50000000
Simulation Instructions: 50000000
Number of CPUs: 1
LLC sets: 2048
LLC ways: 16
Off-chip DRAM Size: 4096 MB Channels: 1 Width: 64-bit Data Rate: 3200 MT/s

CPU 0 runs /home/ykhodke/ChampSim/dpc3_traces/spec_gcc_003.champsimtrace.xz
L1I D-JOLT instruction prefetcher has been constructed!
CPU 0 L1D next line prefetcher
Heartbeat CPU 0 instructions: 10000001 cycles: 3479570 heartbeat IPC: 2.87392 cumulative IPC: 2.87392 (Simulation time: 0 hr 2 min 35 sec) 
Heartbeat CPU 0 instructions: 20000000 cycles: 6944259 heartbeat IPC: 2.88626 cumulative IPC: 2.88008 (Simulation time: 0 hr 5 min 18 sec) 
Heartbeat CPU 0 instructions: 30000002 cycles: 10387425 heartbeat IPC: 2.9043 cumulative IPC: 2.88811 (Simulation time: 0 hr 7 min 53 sec) 
Heartbeat CPU 0 instructions: 40000000 cycles: 13853102 heartbeat IPC: 2.88544 cumulative IPC: 2.88744 (Simulation time: 0 hr 10 min 16 sec) 
Heartbeat CPU 0 instructions: 50000001 cycles: 17160400 heartbeat IPC: 3.02362 cumulative IPC: 2.91369 (Simulation time: 0 hr 12 min 32 sec) 

Warmup complete CPU 0 instructions: 50000001 cycles: 17160400 (Simulation time: 0 hr 12 min 32 sec) 

Heartbeat CPU 0 instructions: 60000000 cycles: 56977334 heartbeat IPC: 0.251149 cumulative IPC: 0.251149 (Simulation time: 0 hr 18 min 11 sec) 
Heartbeat CPU 0 instructions: 70000000 cycles: 99882170 heartbeat IPC: 0.233074 cumulative IPC: 0.241774 (Simulation time: 0 hr 23 min 45 sec) 
Heartbeat CPU 0 instructions: 80000003 cycles: 143764242 heartbeat IPC: 0.227884 cumulative IPC: 0.23696 (Simulation time: 0 hr 28 min 42 sec) 
Heartbeat CPU 0 instructions: 90000002 cycles: 180825411 heartbeat IPC: 0.269824 cumulative IPC: 0.244402 (Simulation time: 0 hr 30 min 15 sec) 
Heartbeat CPU 0 instructions: 100000001 cycles: 227442681 heartbeat IPC: 0.214513 cumulative IPC: 0.237776 (Simulation time: 0 hr 30 min 57 sec) 
Finished CPU 0 instructions: 50000000 cycles: 210282281 cumulative IPC: 0.237776 (Simulation time: 0 hr 30 min 57 sec) 

ChampSim completed all CPUs

Region of Interest Statistics

CPU 0 cumulative IPC: 0.237776 instructions: 50000000 cycles: 210282281
L1D TOTAL     ACCESS:   16805918  HIT:   11081663  MISS:    5724255
L1D LOAD      ACCESS:    4546796  HIT:    4163673  MISS:     383123
L1D RFO       ACCESS:    8202026  HIT:    3150407  MISS:    5051619
L1D PREFETCH  ACCESS:    4057096  HIT:    3767583  MISS:     289513
L1D WRITEBACK ACCESS:          0  HIT:          0  MISS:          0
L1D PREFETCH  REQUESTED:    4564175  ISSUED:    4504414  USEFUL:     152128  USELESS:     137564
L1D AVERAGE MISS LATENCY: 501.65 cycles
L1I TOTAL     ACCESS:   16305771  HIT:   14835122  MISS:    1470649
L1I LOAD      ACCESS:   11291062  HIT:   11226453  MISS:      64609
L1I RFO       ACCESS:          0  HIT:          0  MISS:          0
L1I PREFETCH  ACCESS:    5014709  HIT:    3608669  MISS:    1406040
L1I WRITEBACK ACCESS:          0  HIT:          0  MISS:          0
L1I PREFETCH  REQUESTED:    5896806  ISSUED:    5473285  USEFUL:     824023  USELESS:     582006
L1I AVERAGE MISS LATENCY: 60.742 cycles
L2C TOTAL     ACCESS:   12788479  HIT:    6674008  MISS:    6114471
L2C LOAD      ACCESS:     236887  HIT:      64967  MISS:     171920
L2C RFO       ACCESS:    5049804  HIT:       6421  MISS:    5043383
L2C PREFETCH  ACCESS:    2343926  HIT:    1445465  MISS:     898461
L2C WRITEBACK ACCESS:    5157862  HIT:    5157155  MISS:        707
L2C PREFETCH  REQUESTED:    2113531  ISSUED:    2113468  USEFUL:      25202  USELESS:     870382
L2C AVERAGE MISS LATENCY: 470.574 cycles
LLC TOTAL     ACCESS:   12053921  HIT:    7279770  MISS:    4774151
LLC LOAD      ACCESS:     171881  HIT:     128596  MISS:      43285
LLC RFO       ACCESS:    5043384  HIT:     625529  MISS:    4417855
LLC PREFETCH  ACCESS:    1704868  HIT:    1391857  MISS:     313011
LLC WRITEBACK ACCESS:    5133788  HIT:    5133788  MISS:          0
LLC PREFETCH  REQUESTED:          0  ISSUED:          0  USEFUL:      11666  USELESS:     301153
LLC AVERAGE MISS LATENCY: 574.811 cycles
Major fault: 0 Minor fault: 2819
CPU 0 L1D next line prefetcher final stats

DRAM Statistics
 CHANNEL 0
 RQ ROW_BUFFER_HIT:    1451987  ROW_BUFFER_MISS:    3321846
 DBUS_CONGESTED:    8231471
 WQ ROW_BUFFER_HIT:    1177193  ROW_BUFFER_MISS:    3270438  FULL:          0

 AVG_CONGESTED_CYCLE: 6

CPU 0 Branch Prediction Accuracy: 99.665% MPKI: 0.78342 Average ROB Occupancy at Mispredict: 123.898

Branch types
NOT_BRANCH: 38305856 76.6117%
BRANCH_DIRECT_JUMP: 384281 0.768562%
BRANCH_INDIRECT: 71949 0.143898%
BRANCH_CONDITIONAL: 9879825 19.7597%
BRANCH_DIRECT_CALL: 650586 1.30117%
BRANCH_INDIRECT_CALL: 28456 0.056912%
BRANCH_RETURN: 679046 1.35809%
BRANCH_OTHER: 0 0%

