Initialize SIGNATURE TABLE
ST_SET: 1
ST_WAY: 256
ST_TAG_BIT: 16
ST_TAG_MASK: ffff

Initialize PATTERN TABLE
PT_SET: 512
PT_WAY: 4
SIG_DELTA_BIT: 7
C_SIG_BIT: 4
C_DELTA_BIT: 4

Initialize PREFETCH FILTER
FILTER_SET: 1024

*** ChampSim Multicore Out-of-Order Simulator ***

Warmup Instructions: 50000000
Simulation Instructions: 50000000
Number of CPUs: 1
LLC sets: 2048
LLC ways: 16
Off-chip DRAM Size: 4096 MB Channels: 1 Width: 64-bit Data Rate: 3200 MT/s

CPU 0 runs /home/ykhodke/ChampSim/dpc3_traces/spec_gcc_003.champsimtrace.xz
LHT KB: 126.25
SCC KB: 1.56
Total KB: 127.81
CPU 0 L1D next line prefetcher
Heartbeat CPU 0 instructions: 10000001 cycles: 3480902 heartbeat IPC: 2.87282 cumulative IPC: 2.87282 (Simulation time: 0 hr 2 min 57 sec) 
Heartbeat CPU 0 instructions: 20000000 cycles: 6951329 heartbeat IPC: 2.88149 cumulative IPC: 2.87715 (Simulation time: 0 hr 5 min 41 sec) 
Heartbeat CPU 0 instructions: 30000002 cycles: 10393008 heartbeat IPC: 2.90556 cumulative IPC: 2.88656 (Simulation time: 0 hr 8 min 29 sec) 
Heartbeat CPU 0 instructions: 40000000 cycles: 13861474 heartbeat IPC: 2.88312 cumulative IPC: 2.8857 (Simulation time: 0 hr 11 min 12 sec) 
Heartbeat CPU 0 instructions: 50000001 cycles: 17171788 heartbeat IPC: 3.02086 cumulative IPC: 2.91175 (Simulation time: 0 hr 13 min 44 sec) 

Warmup complete CPU 0 instructions: 50000001 cycles: 17171788 (Simulation time: 0 hr 13 min 44 sec) 

Heartbeat CPU 0 instructions: 60000000 cycles: 56879010 heartbeat IPC: 0.251843 cumulative IPC: 0.251843 (Simulation time: 0 hr 20 min 18 sec) 
Heartbeat CPU 0 instructions: 70000000 cycles: 99376551 heartbeat IPC: 0.235308 cumulative IPC: 0.243295 (Simulation time: 0 hr 26 min 54 sec) 
Heartbeat CPU 0 instructions: 80000003 cycles: 142863505 heartbeat IPC: 0.229954 cumulative IPC: 0.238679 (Simulation time: 0 hr 30 min 26 sec) 
Heartbeat CPU 0 instructions: 90000002 cycles: 179540601 heartbeat IPC: 0.27265 cumulative IPC: 0.246353 (Simulation time: 0 hr 31 min 12 sec) 
Heartbeat CPU 0 instructions: 100000001 cycles: 225705674 heartbeat IPC: 0.216614 cumulative IPC: 0.239769 (Simulation time: 0 hr 31 min 50 sec) 
Finished CPU 0 instructions: 50000000 cycles: 208533886 cumulative IPC: 0.239769 (Simulation time: 0 hr 31 min 50 sec) 

ChampSim completed all CPUs

Region of Interest Statistics

CPU 0 cumulative IPC: 0.239769 instructions: 50000000 cycles: 208533886
L1D TOTAL     ACCESS:   16891518  HIT:   11167133  MISS:    5724385
L1D LOAD      ACCESS:    4585956  HIT:    4202836  MISS:     383120
L1D RFO       ACCESS:    8209154  HIT:    3157430  MISS:    5051724
L1D PREFETCH  ACCESS:    4096408  HIT:    3806867  MISS:     289541
L1D WRITEBACK ACCESS:          0  HIT:          0  MISS:          0
L1D PREFETCH  REQUESTED:    4604064  ISSUED:    4544591  USEFUL:     152176  USELESS:     137545
L1D AVERAGE MISS LATENCY: 500.987 cycles
L1I TOTAL     ACCESS:   23727020  HIT:   22150928  MISS:    1576092
L1I LOAD      ACCESS:   11250708  HIT:   11041651  MISS:     209057
L1I RFO       ACCESS:          0  HIT:          0  MISS:          0
L1I PREFETCH  ACCESS:   12476312  HIT:   11109277  MISS:    1367035
L1I WRITEBACK ACCESS:          0  HIT:          0  MISS:          0
L1I PREFETCH  REQUESTED:   13991426  ISSUED:   13991324  USEFUL:     677165  USELESS:     689738
L1I AVERAGE MISS LATENCY: 36.8079 cycles
L2C TOTAL     ACCESS:   12913542  HIT:    6819062  MISS:    6094480
L2C LOAD      ACCESS:     238775  HIT:      67682  MISS:     171093
L2C RFO       ACCESS:    5049959  HIT:       6463  MISS:    5043496
L2C PREFETCH  ACCESS:    2466969  HIT:    1587237  MISS:     879732
L2C WRITEBACK ACCESS:    5157839  HIT:    5157680  MISS:        159
L2C PREFETCH  REQUESTED:    2030583  ISSUED:    2030362  USEFUL:      25467  USELESS:     851233
L2C AVERAGE MISS LATENCY: 466.399 cycles
LLC TOTAL     ACCESS:   12007647  HIT:    7378212  MISS:    4629435
LLC LOAD      ACCESS:     171067  HIT:     129933  MISS:      41134
LLC RFO       ACCESS:    5043496  HIT:     680220  MISS:    4363276
LLC PREFETCH  ACCESS:    1659273  HIT:    1434248  MISS:     225025
LLC WRITEBACK ACCESS:    5133811  HIT:    5133811  MISS:          0
LLC PREFETCH  REQUESTED:          0  ISSUED:          0  USEFUL:      11118  USELESS:     213526
LLC AVERAGE MISS LATENCY: 581.163 cycles
Major fault: 0 Minor fault: 2821
CPU 0 L1D next line prefetcher final stats

DRAM Statistics
 CHANNEL 0
 RQ ROW_BUFFER_HIT:    1378823  ROW_BUFFER_MISS:    3250556
 DBUS_CONGESTED:    8089438
 WQ ROW_BUFFER_HIT:    1173967  ROW_BUFFER_MISS:    3217077  FULL:          0

 AVG_CONGESTED_CYCLE: 6

CPU 0 Branch Prediction Accuracy: 99.665% MPKI: 0.78342 Average ROB Occupancy at Mispredict: 115.072

Branch types
NOT_BRANCH: 38305856 76.6117%
BRANCH_DIRECT_JUMP: 384281 0.768562%
BRANCH_INDIRECT: 71949 0.143898%
BRANCH_CONDITIONAL: 9879825 19.7597%
BRANCH_DIRECT_CALL: 650586 1.30117%
BRANCH_INDIRECT_CALL: 28456 0.056912%
BRANCH_RETURN: 679046 1.35809%
BRANCH_OTHER: 0 0%

