Initialize SIGNATURE TABLE
ST_SET: 1
ST_WAY: 256
ST_TAG_BIT: 16
ST_TAG_MASK: ffff

Initialize PATTERN TABLE
PT_SET: 512
PT_WAY: 4
SIG_DELTA_BIT: 7
C_SIG_BIT: 4
C_DELTA_BIT: 4

Initialize PREFETCH FILTER
FILTER_SET: 1024

*** ChampSim Multicore Out-of-Order Simulator ***

Warmup Instructions: 50000000
Simulation Instructions: 50000000
Number of CPUs: 1
LLC sets: 2048
LLC ways: 16
Off-chip DRAM Size: 4096 MB Channels: 1 Width: 64-bit Data Rate: 3200 MT/s

CPU 0 runs /home/ykhodke/ChampSim/dpc3_traces/spec_gcc_003.champsimtrace.xz
LHT KB: 126.25
SCC KB: 1.56
Total KB: 127.81
CPU 0 L1D next line prefetcher
Heartbeat CPU 0 instructions: 10000001 cycles: 3482534 heartbeat IPC: 2.87147 cumulative IPC: 2.87147 (Simulation time: 0 hr 2 min 21 sec) 
Heartbeat CPU 0 instructions: 20000000 cycles: 6950297 heartbeat IPC: 2.8837 cumulative IPC: 2.87757 (Simulation time: 0 hr 4 min 38 sec) 
Heartbeat CPU 0 instructions: 30000002 cycles: 10396211 heartbeat IPC: 2.90199 cumulative IPC: 2.88567 (Simulation time: 0 hr 6 min 56 sec) 
Heartbeat CPU 0 instructions: 40000000 cycles: 13864242 heartbeat IPC: 2.88348 cumulative IPC: 2.88512 (Simulation time: 0 hr 9 min 19 sec) 
Heartbeat CPU 0 instructions: 50000001 cycles: 17174399 heartbeat IPC: 3.02101 cumulative IPC: 2.91131 (Simulation time: 0 hr 11 min 34 sec) 

Warmup complete CPU 0 instructions: 50000001 cycles: 17174399 (Simulation time: 0 hr 11 min 34 sec) 

Heartbeat CPU 0 instructions: 60000000 cycles: 56617691 heartbeat IPC: 0.253529 cumulative IPC: 0.253529 (Simulation time: 0 hr 17 min 13 sec) 
Heartbeat CPU 0 instructions: 70000000 cycles: 98942765 heartbeat IPC: 0.236267 cumulative IPC: 0.244593 (Simulation time: 0 hr 23 min 33 sec) 
Heartbeat CPU 0 instructions: 80000003 cycles: 142287118 heartbeat IPC: 0.230711 cumulative IPC: 0.239784 (Simulation time: 0 hr 28 min 4 sec) 
Heartbeat CPU 0 instructions: 90000002 cycles: 178816538 heartbeat IPC: 0.273752 cumulative IPC: 0.24746 (Simulation time: 0 hr 29 min 22 sec) 
Heartbeat CPU 0 instructions: 100000001 cycles: 225049475 heartbeat IPC: 0.216296 cumulative IPC: 0.240529 (Simulation time: 0 hr 30 min 2 sec) 
Finished CPU 0 instructions: 50000000 cycles: 207875076 cumulative IPC: 0.240529 (Simulation time: 0 hr 30 min 2 sec) 

ChampSim completed all CPUs

Region of Interest Statistics

CPU 0 cumulative IPC: 0.240529 instructions: 50000000 cycles: 207875076
L1D TOTAL     ACCESS:   16889743  HIT:   11165342  MISS:    5724401
L1D LOAD      ACCESS:    4585829  HIT:    4202944  MISS:     382885
L1D RFO       ACCESS:    8207419  HIT:    3155606  MISS:    5051813
L1D PREFETCH  ACCESS:    4096495  HIT:    3806792  MISS:     289703
L1D WRITEBACK ACCESS:          0  HIT:          0  MISS:          0
L1D PREFETCH  REQUESTED:    4604086  ISSUED:    4545004  USEFUL:     152314  USELESS:     137569
L1D AVERAGE MISS LATENCY: 498.967 cycles
L1I TOTAL     ACCESS:   24719489  HIT:   22765998  MISS:    1953491
L1I LOAD      ACCESS:   11264413  HIT:   11066126  MISS:     198287
L1I RFO       ACCESS:          0  HIT:          0  MISS:          0
L1I PREFETCH  ACCESS:   13455076  HIT:   11699872  MISS:    1755204
L1I WRITEBACK ACCESS:          0  HIT:          0  MISS:          0
L1I PREFETCH  REQUESTED:   15098618  ISSUED:   15098556  USEFUL:     750687  USELESS:    1004430
L1I AVERAGE MISS LATENCY: 33.1372 cycles
L2C TOTAL     ACCESS:   13388114  HIT:    7279811  MISS:    6108303
L2C LOAD      ACCESS:     252718  HIT:      77437  MISS:     175281
L2C RFO       ACCESS:    5049968  HIT:       6468  MISS:    5043500
L2C PREFETCH  ACCESS:    2927572  HIT:    2038279  MISS:     889293
L2C WRITEBACK ACCESS:    5157856  HIT:    5157627  MISS:        229
L2C PREFETCH  REQUESTED:    2202579  ISSUED:    2202256  USEFUL:      31546  USELESS:     854838
L2C AVERAGE MISS LATENCY: 463.502 cycles
LLC TOTAL     ACCESS:   12056167  HIT:    7443738  MISS:    4612429
LLC LOAD      ACCESS:     175246  HIT:     132786  MISS:      42460
LLC RFO       ACCESS:    5043500  HIT:     699301  MISS:    4344199
LLC PREFETCH  ACCESS:    1703749  HIT:    1477979  MISS:     225770
LLC WRITEBACK ACCESS:    5133672  HIT:    5133672  MISS:          0
LLC PREFETCH  REQUESTED:          0  ISSUED:          0  USEFUL:      11812  USELESS:     213610
LLC AVERAGE MISS LATENCY: 580.844 cycles
Major fault: 0 Minor fault: 2823
CPU 0 L1D next line prefetcher final stats

DRAM Statistics
 CHANNEL 0
 RQ ROW_BUFFER_HIT:    1371790  ROW_BUFFER_MISS:    3240586
 DBUS_CONGESTED:    8052013
 WQ ROW_BUFFER_HIT:    1165572  ROW_BUFFER_MISS:    3207121  FULL:          0

 AVG_CONGESTED_CYCLE: 6

CPU 0 Branch Prediction Accuracy: 99.665% MPKI: 0.78342 Average ROB Occupancy at Mispredict: 116.298

Branch types
NOT_BRANCH: 38305865 76.6117%
BRANCH_DIRECT_JUMP: 384282 0.768564%
BRANCH_INDIRECT: 71949 0.143898%
BRANCH_CONDITIONAL: 9879826 19.7597%
BRANCH_DIRECT_CALL: 650586 1.30117%
BRANCH_INDIRECT_CALL: 28456 0.056912%
BRANCH_RETURN: 679046 1.35809%
BRANCH_OTHER: 0 0%

