Initialize SIGNATURE TABLE
ST_SET: 1
ST_WAY: 256
ST_TAG_BIT: 16
ST_TAG_MASK: ffff

Initialize PATTERN TABLE
PT_SET: 512
PT_WAY: 4
SIG_DELTA_BIT: 7
C_SIG_BIT: 4
C_DELTA_BIT: 4

Initialize PREFETCH FILTER
FILTER_SET: 1024

*** ChampSim Multicore Out-of-Order Simulator ***

Warmup Instructions: 50000000
Simulation Instructions: 50000000
Number of CPUs: 1
LLC sets: 2048
LLC ways: 16
Off-chip DRAM Size: 4096 MB Channels: 1 Width: 64-bit Data Rate: 3200 MT/s

CPU 0 runs /home/ykhodke/ChampSim/dpc3_traces/spec_perlbench_001.champsimtrace.xz
LHT KB: 63.12
SCC KB: 1.56
Total KB: 64.69
CPU 0 L1D next line prefetcher
Heartbeat CPU 0 instructions: 10000000 cycles: 3275809 heartbeat IPC: 3.05268 cumulative IPC: 3.05268 (Simulation time: 0 hr 2 min 48 sec) 
Heartbeat CPU 0 instructions: 20000000 cycles: 6540480 heartbeat IPC: 3.0631 cumulative IPC: 3.05788 (Simulation time: 0 hr 5 min 54 sec) 
Heartbeat CPU 0 instructions: 30000002 cycles: 9857107 heartbeat IPC: 3.01511 cumulative IPC: 3.04349 (Simulation time: 0 hr 9 min 2 sec) 
Heartbeat CPU 0 instructions: 40000002 cycles: 13112428 heartbeat IPC: 3.07189 cumulative IPC: 3.05054 (Simulation time: 0 hr 11 min 45 sec) 
Heartbeat CPU 0 instructions: 50000001 cycles: 16386204 heartbeat IPC: 3.05458 cumulative IPC: 3.05135 (Simulation time: 0 hr 14 min 26 sec) 

Warmup complete CPU 0 instructions: 50000001 cycles: 16386204 (Simulation time: 0 hr 14 min 26 sec) 

Heartbeat CPU 0 instructions: 60000001 cycles: 24634260 heartbeat IPC: 1.21241 cumulative IPC: 1.21241 (Simulation time: 0 hr 17 min 18 sec) 
Heartbeat CPU 0 instructions: 70000003 cycles: 32761209 heartbeat IPC: 1.23047 cumulative IPC: 1.22137 (Simulation time: 0 hr 20 min 22 sec) 
Heartbeat CPU 0 instructions: 80000000 cycles: 41214063 heartbeat IPC: 1.18303 cumulative IPC: 1.20832 (Simulation time: 0 hr 23 min 1 sec) 
Heartbeat CPU 0 instructions: 90000000 cycles: 46931223 heartbeat IPC: 1.74912 cumulative IPC: 1.30954 (Simulation time: 0 hr 25 min 7 sec) 
Heartbeat CPU 0 instructions: 100000002 cycles: 52792367 heartbeat IPC: 1.70615 cumulative IPC: 1.37339 (Simulation time: 0 hr 26 min 51 sec) 
Finished CPU 0 instructions: 50000001 cycles: 36406163 cumulative IPC: 1.37339 (Simulation time: 0 hr 26 min 51 sec) 

ChampSim completed all CPUs

Region of Interest Statistics

CPU 0 cumulative IPC: 1.37339 instructions: 50000001 cycles: 36406163
L1D TOTAL     ACCESS:   20697641  HIT:   20282555  MISS:     415086
L1D LOAD      ACCESS:    7178397  HIT:    6964684  MISS:     213713
L1D RFO       ACCESS:    6542048  HIT:    6523528  MISS:      18520
L1D PREFETCH  ACCESS:    6977196  HIT:    6794343  MISS:     182853
L1D WRITEBACK ACCESS:          0  HIT:          0  MISS:          0
L1D PREFETCH  REQUESTED:    7194231  ISSUED:    7078208  USEFUL:      55177  USELESS:     127671
L1D AVERAGE MISS LATENCY: 58.8929 cycles
L1I TOTAL     ACCESS:   17674290  HIT:   16809800  MISS:     864490
L1I LOAD      ACCESS:    9142102  HIT:    9035527  MISS:     106575
L1I RFO       ACCESS:          0  HIT:          0  MISS:          0
L1I PREFETCH  ACCESS:    8532188  HIT:    7774273  MISS:     757915
L1I WRITEBACK ACCESS:          0  HIT:          0  MISS:          0
L1I PREFETCH  REQUESTED:    9634407  ISSUED:    9634407  USEFUL:     380610  USELESS:     377310
L1I AVERAGE MISS LATENCY: 15.1292 cycles
L2C TOTAL     ACCESS:    1723438  HIT:    1550663  MISS:     172775
L2C LOAD      ACCESS:     219559  HIT:     142043  MISS:      77516
L2C RFO       ACCESS:      18274  HIT:      12666  MISS:       5608
L2C PREFETCH  ACCESS:    1406650  HIT:    1317485  MISS:      89165
L2C WRITEBACK ACCESS:      78955  HIT:      78469  MISS:        486
L2C PREFETCH  REQUESTED:     880281  ISSUED:     880273  USEFUL:       5313  USELESS:      83784
L2C AVERAGE MISS LATENCY: 120.007 cycles
LLC TOTAL     ACCESS:     398930  HIT:     258643  MISS:     140287
LLC LOAD      ACCESS:      77516  HIT:      29289  MISS:      48227
LLC RFO       ACCESS:       5608  HIT:       2541  MISS:       3067
LLC PREFETCH  ACCESS:     289736  HIT:     201163  MISS:      88573
LLC WRITEBACK ACCESS:      26070  HIT:      25650  MISS:        420
LLC PREFETCH  REQUESTED:          0  ISSUED:          0  USEFUL:      12781  USELESS:      76076
LLC AVERAGE MISS LATENCY: 160.293 cycles
Major fault: 0 Minor fault: 6371
CPU 0 L1D next line prefetcher final stats

DRAM Statistics
 CHANNEL 0
 RQ ROW_BUFFER_HIT:      32143  ROW_BUFFER_MISS:     107723
 DBUS_CONGESTED:      57725
 WQ ROW_BUFFER_HIT:       4202  ROW_BUFFER_MISS:      13063  FULL:          0

 AVG_CONGESTED_CYCLE: 4

CPU 0 Branch Prediction Accuracy: 98.7418% MPKI: 2.47758 Average ROB Occupancy at Mispredict: 79.066

Branch types
NOT_BRANCH: 40154100 80.3082%
BRANCH_DIRECT_JUMP: 817094 1.63419%
BRANCH_INDIRECT: 303787 0.607574%
BRANCH_CONDITIONAL: 7492103 14.9842%
BRANCH_DIRECT_CALL: 471777 0.943554%
BRANCH_INDIRECT_CALL: 144546 0.289092%
BRANCH_RETURN: 616324 1.23265%
BRANCH_OTHER: 0 0%

