Initialize SIGNATURE TABLE
ST_SET: 1
ST_WAY: 256
ST_TAG_BIT: 16
ST_TAG_MASK: ffff

Initialize PATTERN TABLE
PT_SET: 512
PT_WAY: 4
SIG_DELTA_BIT: 7
C_SIG_BIT: 4
C_DELTA_BIT: 4

Initialize PREFETCH FILTER
FILTER_SET: 1024

*** ChampSim Multicore Out-of-Order Simulator ***

Warmup Instructions: 50000000
Simulation Instructions: 50000000
Number of CPUs: 1
LLC sets: 2048
LLC ways: 16
Off-chip DRAM Size: 4096 MB Channels: 1 Width: 64-bit Data Rate: 3200 MT/s

CPU 0 runs /home/ykhodke/ChampSim/dpc3_traces/spec_gcc_003.champsimtrace.xz
L1I D-JOLT instruction prefetcher has been constructed!
CPU 0 L1D next line prefetcher
Heartbeat CPU 0 instructions: 10000001 cycles: 3480593 heartbeat IPC: 2.87307 cumulative IPC: 2.87307 (Simulation time: 0 hr 2 min 47 sec) 
Heartbeat CPU 0 instructions: 20000000 cycles: 6956617 heartbeat IPC: 2.87685 cumulative IPC: 2.87496 (Simulation time: 0 hr 5 min 24 sec) 
Heartbeat CPU 0 instructions: 30000002 cycles: 10399019 heartbeat IPC: 2.90495 cumulative IPC: 2.88489 (Simulation time: 0 hr 8 min 10 sec) 
Heartbeat CPU 0 instructions: 40000000 cycles: 13868222 heartbeat IPC: 2.88251 cumulative IPC: 2.88429 (Simulation time: 0 hr 10 min 58 sec) 
Heartbeat CPU 0 instructions: 50000001 cycles: 17177478 heartbeat IPC: 3.02183 cumulative IPC: 2.91079 (Simulation time: 0 hr 13 min 37 sec) 

Warmup complete CPU 0 instructions: 50000001 cycles: 17177478 (Simulation time: 0 hr 13 min 37 sec) 

Heartbeat CPU 0 instructions: 60000000 cycles: 56781990 heartbeat IPC: 0.252496 cumulative IPC: 0.252496 (Simulation time: 0 hr 19 min 24 sec) 
Heartbeat CPU 0 instructions: 70000000 cycles: 99408584 heartbeat IPC: 0.234595 cumulative IPC: 0.243217 (Simulation time: 0 hr 24 min 41 sec) 
Heartbeat CPU 0 instructions: 80000003 cycles: 142911235 heartbeat IPC: 0.229871 cumulative IPC: 0.238599 (Simulation time: 0 hr 28 min 15 sec) 
Heartbeat CPU 0 instructions: 90000002 cycles: 179770793 heartbeat IPC: 0.2713 cumulative IPC: 0.246013 (Simulation time: 0 hr 29 min 10 sec) 
Heartbeat CPU 0 instructions: 100000000 cycles: 226095321 heartbeat IPC: 0.215868 cumulative IPC: 0.239329 (Simulation time: 0 hr 29 min 50 sec) 
Finished CPU 0 instructions: 50000000 cycles: 208917844 cumulative IPC: 0.239329 (Simulation time: 0 hr 29 min 50 sec) 

ChampSim completed all CPUs

Region of Interest Statistics

CPU 0 cumulative IPC: 0.239329 instructions: 50000000 cycles: 208917844
L1D TOTAL     ACCESS:   16827440  HIT:   11103144  MISS:    5724296
L1D LOAD      ACCESS:    4556009  HIT:    4172760  MISS:     383249
L1D RFO       ACCESS:    8205692  HIT:    3153976  MISS:    5051716
L1D PREFETCH  ACCESS:    4065739  HIT:    3776408  MISS:     289331
L1D WRITEBACK ACCESS:          0  HIT:          0  MISS:          0
L1D PREFETCH  REQUESTED:    4573534  ISSUED:    4513640  USEFUL:     152010  USELESS:     137501
L1D AVERAGE MISS LATENCY: 498.169 cycles
L1I TOTAL     ACCESS:   14863723  HIT:   13660212  MISS:    1203511
L1I LOAD      ACCESS:   11278050  HIT:   11199080  MISS:      78970
L1I RFO       ACCESS:          0  HIT:          0  MISS:          0
L1I PREFETCH  ACCESS:    3585673  HIT:    2461132  MISS:    1124541
L1I WRITEBACK ACCESS:          0  HIT:          0  MISS:          0
L1I PREFETCH  REQUESTED:    3840528  ISSUED:    3777627  USEFUL:     753345  USELESS:     371184
L1I AVERAGE MISS LATENCY: 64.219 cycles
L2C TOTAL     ACCESS:   12456570  HIT:    6381865  MISS:    6074705
L2C LOAD      ACCESS:     248441  HIT:      72054  MISS:     176387
L2C RFO       ACCESS:    5049833  HIT:       6453  MISS:    5043380
L2C PREFETCH  ACCESS:    2000416  HIT:    1145999  MISS:     854417
L2C WRITEBACK ACCESS:    5157880  HIT:    5157359  MISS:        521
L2C PREFETCH  REQUESTED:    1857049  ISSUED:    1856996  USEFUL:      31338  USELESS:     820172
L2C AVERAGE MISS LATENCY: 468.959 cycles
LLC TOTAL     ACCESS:   11943192  HIT:    7221973  MISS:    4721219
LLC LOAD      ACCESS:     176344  HIT:     131584  MISS:      44760
LLC RFO       ACCESS:    5043380  HIT:     662702  MISS:    4380678
LLC PREFETCH  ACCESS:    1589668  HIT:    1293887  MISS:     295781
LLC WRITEBACK ACCESS:    5133800  HIT:    5133800  MISS:          0
LLC PREFETCH  REQUESTED:          0  ISSUED:          0  USEFUL:      13737  USELESS:     281958
LLC AVERAGE MISS LATENCY: 574.388 cycles
Major fault: 0 Minor fault: 2819
CPU 0 L1D next line prefetcher final stats

DRAM Statistics
 CHANNEL 0
 RQ ROW_BUFFER_HIT:    1431851  ROW_BUFFER_MISS:    3289090
 DBUS_CONGESTED:    8151620
 WQ ROW_BUFFER_HIT:    1172856  ROW_BUFFER_MISS:    3237343  FULL:          0

 AVG_CONGESTED_CYCLE: 6

CPU 0 Branch Prediction Accuracy: 99.665% MPKI: 0.78342 Average ROB Occupancy at Mispredict: 120.451

Branch types
NOT_BRANCH: 38305856 76.6117%
BRANCH_DIRECT_JUMP: 384281 0.768562%
BRANCH_INDIRECT: 71949 0.143898%
BRANCH_CONDITIONAL: 9879825 19.7597%
BRANCH_DIRECT_CALL: 650586 1.30117%
BRANCH_INDIRECT_CALL: 28456 0.056912%
BRANCH_RETURN: 679046 1.35809%
BRANCH_OTHER: 0 0%

