Initialize SIGNATURE TABLE
ST_SET: 1
ST_WAY: 256
ST_TAG_BIT: 16
ST_TAG_MASK: ffff

Initialize PATTERN TABLE
PT_SET: 512
PT_WAY: 4
SIG_DELTA_BIT: 7
C_SIG_BIT: 4
C_DELTA_BIT: 4

Initialize PREFETCH FILTER
FILTER_SET: 1024

*** ChampSim Multicore Out-of-Order Simulator ***

Warmup Instructions: 50000000
Simulation Instructions: 50000000
Number of CPUs: 1
LLC sets: 2048
LLC ways: 16
Off-chip DRAM Size: 4096 MB Channels: 1 Width: 64-bit Data Rate: 3200 MT/s

CPU 0 runs /home/ykhodke/ChampSim/dpc3_traces/spec_gobmk_002.champsimtrace.xz
LHT KB: 126.25
SCC KB: 1.56
Total KB: 127.81
CPU 0 L1D next line prefetcher
Heartbeat CPU 0 instructions: 10000001 cycles: 3287551 heartbeat IPC: 3.04178 cumulative IPC: 3.04178 (Simulation time: 0 hr 2 min 32 sec) 
Heartbeat CPU 0 instructions: 20000000 cycles: 6619148 heartbeat IPC: 3.00156 cumulative IPC: 3.02154 (Simulation time: 0 hr 4 min 54 sec) 
Heartbeat CPU 0 instructions: 30000000 cycles: 9957126 heartbeat IPC: 2.99583 cumulative IPC: 3.01292 (Simulation time: 0 hr 7 min 15 sec) 
Heartbeat CPU 0 instructions: 40000000 cycles: 13266544 heartbeat IPC: 3.02168 cumulative IPC: 3.0151 (Simulation time: 0 hr 9 min 40 sec) 
Heartbeat CPU 0 instructions: 50000003 cycles: 16530093 heartbeat IPC: 3.06415 cumulative IPC: 3.02479 (Simulation time: 0 hr 12 min 15 sec) 

Warmup complete CPU 0 instructions: 50000003 cycles: 16530093 (Simulation time: 0 hr 12 min 15 sec) 

Heartbeat CPU 0 instructions: 60000003 cycles: 23915707 heartbeat IPC: 1.35398 cumulative IPC: 1.35398 (Simulation time: 0 hr 14 min 28 sec) 
Heartbeat CPU 0 instructions: 70000003 cycles: 31257327 heartbeat IPC: 1.3621 cumulative IPC: 1.35803 (Simulation time: 0 hr 16 min 39 sec) 
Heartbeat CPU 0 instructions: 80000000 cycles: 38471035 heartbeat IPC: 1.38625 cumulative IPC: 1.36731 (Simulation time: 0 hr 18 min 51 sec) 
Heartbeat CPU 0 instructions: 90000001 cycles: 45976675 heartbeat IPC: 1.33233 cumulative IPC: 1.35839 (Simulation time: 0 hr 20 min 53 sec) 
Heartbeat CPU 0 instructions: 100000003 cycles: 53704545 heartbeat IPC: 1.29402 cumulative IPC: 1.34501 (Simulation time: 0 hr 23 min 1 sec) 
Finished CPU 0 instructions: 50000000 cycles: 37174452 cumulative IPC: 1.34501 (Simulation time: 0 hr 23 min 1 sec) 

ChampSim completed all CPUs

Region of Interest Statistics

CPU 0 cumulative IPC: 1.34501 instructions: 50000000 cycles: 37174452
L1D TOTAL     ACCESS:   17627987  HIT:   17504868  MISS:     123119
L1D LOAD      ACCESS:    6659602  HIT:    6625338  MISS:      34264
L1D RFO       ACCESS:    4387675  HIT:    4345026  MISS:      42649
L1D PREFETCH  ACCESS:    6580710  HIT:    6534504  MISS:      46206
L1D WRITEBACK ACCESS:          0  HIT:          0  MISS:          0
L1D PREFETCH  REQUESTED:    6662051  ISSUED:    6594812  USEFUL:      17146  USELESS:      29243
L1D AVERAGE MISS LATENCY: 51.7649 cycles
L1I TOTAL     ACCESS:   24572186  HIT:   22324276  MISS:    2247910
L1I LOAD      ACCESS:    8867785  HIT:    8745857  MISS:     121928
L1I RFO       ACCESS:          0  HIT:          0  MISS:          0
L1I PREFETCH  ACCESS:   15704401  HIT:   13578419  MISS:    2125982
L1I WRITEBACK ACCESS:          0  HIT:          0  MISS:          0
L1I PREFETCH  REQUESTED:   17574388  ISSUED:   17574388  USEFUL:    1013530  USELESS:    1112478
L1I AVERAGE MISS LATENCY: 13.8685 cycles
L2C TOTAL     ACCESS:    3214750  HIT:    3174409  MISS:      40341
L2C LOAD      ACCESS:      59934  HIT:      47090  MISS:      12844
L2C RFO       ACCESS:      42509  HIT:      39459  MISS:       3050
L2C PREFETCH  ACCESS:    3038103  HIT:    3013840  MISS:      24263
L2C WRITEBACK ACCESS:      74204  HIT:      74020  MISS:        184
L2C PREFETCH  REQUESTED:    1280835  ISSUED:    1280829  USEFUL:       2386  USELESS:      21807
L2C AVERAGE MISS LATENCY: 125.635 cycles
LLC TOTAL     ACCESS:     141617  HIT:     110947  MISS:      30670
LLC LOAD      ACCESS:      12844  HIT:       4587  MISS:       8257
LLC RFO       ACCESS:       3050  HIT:       1418  MISS:       1632
LLC PREFETCH  ACCESS:     107157  HIT:      86872  MISS:      20285
LLC WRITEBACK ACCESS:      18566  HIT:      18070  MISS:        496
LLC PREFETCH  REQUESTED:          0  ISSUED:          0  USEFUL:       1625  USELESS:      18582
LLC AVERAGE MISS LATENCY: 185.79 cycles
Major fault: 0 Minor fault: 2786
CPU 0 L1D next line prefetcher final stats

DRAM Statistics
 CHANNEL 0
 RQ ROW_BUFFER_HIT:       2617  ROW_BUFFER_MISS:      27556
 DBUS_CONGESTED:      14400
 WQ ROW_BUFFER_HIT:        754  ROW_BUFFER_MISS:      12885  FULL:          0

 AVG_CONGESTED_CYCLE: 4

CPU 0 Branch Prediction Accuracy: 93.9974% MPKI: 10.2447 Average ROB Occupancy at Mispredict: 40.1687

Branch types
NOT_BRANCH: 41466053 82.9321%
BRANCH_DIRECT_JUMP: 464313 0.928626%
BRANCH_INDIRECT: 32 6.4e-05%
BRANCH_CONDITIONAL: 7069454 14.1389%
BRANCH_DIRECT_CALL: 499586 0.999172%
BRANCH_INDIRECT_CALL: 342 0.000684%
BRANCH_RETURN: 499906 0.999812%
BRANCH_OTHER: 0 0%

