Initialize SIGNATURE TABLE
ST_SET: 1
ST_WAY: 256
ST_TAG_BIT: 16
ST_TAG_MASK: ffff

Initialize PATTERN TABLE
PT_SET: 512
PT_WAY: 4
SIG_DELTA_BIT: 7
C_SIG_BIT: 4
C_DELTA_BIT: 4

Initialize PREFETCH FILTER
FILTER_SET: 1024

*** ChampSim Multicore Out-of-Order Simulator ***

Warmup Instructions: 50000000
Simulation Instructions: 50000000
Number of CPUs: 1
LLC sets: 2048
LLC ways: 16
Off-chip DRAM Size: 4096 MB Channels: 1 Width: 64-bit Data Rate: 3200 MT/s

CPU 0 runs /home/ykhodke/ChampSim/dpc3_traces/spec_x264_001.champsimtrace.xz
LHT KB: 126.25
SCC KB: 1.56
Total KB: 127.81
CPU 0 L1D next line prefetcher
Heartbeat CPU 0 instructions: 10000002 cycles: 3060421 heartbeat IPC: 3.26752 cumulative IPC: 3.26752 (Simulation time: 0 hr 1 min 57 sec) 
Heartbeat CPU 0 instructions: 20000002 cycles: 6111143 heartbeat IPC: 3.27791 cumulative IPC: 3.27271 (Simulation time: 0 hr 4 min 2 sec) 
Heartbeat CPU 0 instructions: 30000002 cycles: 9147258 heartbeat IPC: 3.29368 cumulative IPC: 3.27967 (Simulation time: 0 hr 6 min 0 sec) 
Heartbeat CPU 0 instructions: 40000000 cycles: 12192430 heartbeat IPC: 3.28389 cumulative IPC: 3.28072 (Simulation time: 0 hr 8 min 2 sec) 
Heartbeat CPU 0 instructions: 50000000 cycles: 15235927 heartbeat IPC: 3.28569 cumulative IPC: 3.28172 (Simulation time: 0 hr 9 min 48 sec) 

Warmup complete CPU 0 instructions: 50000004 cycles: 15235928 (Simulation time: 0 hr 9 min 48 sec) 

Heartbeat CPU 0 instructions: 60000002 cycles: 21183327 heartbeat IPC: 1.68141 cumulative IPC: 1.68141 (Simulation time: 0 hr 11 min 6 sec) 
Heartbeat CPU 0 instructions: 70000000 cycles: 27111699 heartbeat IPC: 1.6868 cumulative IPC: 1.6841 (Simulation time: 0 hr 12 min 32 sec) 
Heartbeat CPU 0 instructions: 80000003 cycles: 33188234 heartbeat IPC: 1.64568 cumulative IPC: 1.67109 (Simulation time: 0 hr 13 min 43 sec) 
Heartbeat CPU 0 instructions: 90000002 cycles: 39243584 heartbeat IPC: 1.65143 cumulative IPC: 1.66614 (Simulation time: 0 hr 14 min 54 sec) 
Heartbeat CPU 0 instructions: 100000002 cycles: 45159599 heartbeat IPC: 1.69033 cumulative IPC: 1.67092 (Simulation time: 0 hr 16 min 2 sec) 
Finished CPU 0 instructions: 50000002 cycles: 29923672 cumulative IPC: 1.67092 (Simulation time: 0 hr 16 min 2 sec) 

ChampSim completed all CPUs

Region of Interest Statistics

CPU 0 cumulative IPC: 1.67092 instructions: 50000002 cycles: 29923672
L1D TOTAL     ACCESS:   12977470  HIT:   12816375  MISS:     161095
L1D LOAD      ACCESS:    5102960  HIT:    5047919  MISS:      55041
L1D RFO       ACCESS:    2880816  HIT:    2846456  MISS:      34360
L1D PREFETCH  ACCESS:    4993694  HIT:    4922000  MISS:      71694
L1D WRITEBACK ACCESS:          0  HIT:          0  MISS:          0
L1D PREFETCH  REQUESTED:    5120024  ISSUED:    5052135  USEFUL:      25812  USELESS:      45691
L1D AVERAGE MISS LATENCY: 41.6598 cycles
L1I TOTAL     ACCESS:   10952505  HIT:   10621496  MISS:     331009
L1I LOAD      ACCESS:    8034453  HIT:    8003443  MISS:      31010
L1I RFO       ACCESS:          0  HIT:          0  MISS:          0
L1I PREFETCH  ACCESS:    2918052  HIT:    2618053  MISS:     299999
L1I WRITEBACK ACCESS:          0  HIT:          0  MISS:          0
L1I PREFETCH  REQUESTED:    3036498  ISSUED:    3036498  USEFUL:     251362  USELESS:      48677
L1I AVERAGE MISS LATENCY: 13.0704 cycles
L2C TOTAL     ACCESS:     725285  HIT:     686826  MISS:      38459
L2C LOAD      ACCESS:      58365  HIT:      53179  MISS:       5186
L2C RFO       ACCESS:      34170  HIT:      22137  MISS:      12033
L2C PREFETCH  ACCESS:     589597  HIT:     568459  MISS:      21138
L2C WRITEBACK ACCESS:      43153  HIT:      43051  MISS:        102
L2C PREFETCH  REQUESTED:     394020  ISSUED:     393869  USEFUL:       8926  USELESS:      12489
L2C AVERAGE MISS LATENCY: 112.636 cycles
LLC TOTAL     ACCESS:      95147  HIT:      66161  MISS:      28986
LLC LOAD      ACCESS:       5186  HIT:       2960  MISS:       2226
LLC RFO       ACCESS:      12033  HIT:        397  MISS:      11636
LLC PREFETCH  ACCESS:      64267  HIT:      49212  MISS:      15055
LLC WRITEBACK ACCESS:      13661  HIT:      13592  MISS:         69
LLC PREFETCH  REQUESTED:          0  ISSUED:          0  USEFUL:       1560  USELESS:      13959
LLC AVERAGE MISS LATENCY: 165.821 cycles
Major fault: 0 Minor fault: 1287
CPU 0 L1D next line prefetcher final stats

DRAM Statistics
 CHANNEL 0
 RQ ROW_BUFFER_HIT:       8759  ROW_BUFFER_MISS:      20157
 DBUS_CONGESTED:      12143
 WQ ROW_BUFFER_HIT:       2858  ROW_BUFFER_MISS:       9874  FULL:          0

 AVG_CONGESTED_CYCLE: 6

CPU 0 Branch Prediction Accuracy: 97.1633% MPKI: 1.73704 Average ROB Occupancy at Mispredict: 41.9126

Branch types
NOT_BRANCH: 46937921 93.8758%
BRANCH_DIRECT_JUMP: 170816 0.341632%
BRANCH_INDIRECT: 0 0%
BRANCH_CONDITIONAL: 2532774 5.06555%
BRANCH_DIRECT_CALL: 114227 0.228454%
BRANCH_INDIRECT_CALL: 64863 0.129726%
BRANCH_RETURN: 179089 0.358178%
BRANCH_OTHER: 0 0%

