Initialize SIGNATURE TABLE
ST_SET: 1
ST_WAY: 256
ST_TAG_BIT: 16
ST_TAG_MASK: ffff

Initialize PATTERN TABLE
PT_SET: 512
PT_WAY: 4
SIG_DELTA_BIT: 7
C_SIG_BIT: 4
C_DELTA_BIT: 4

Initialize PREFETCH FILTER
FILTER_SET: 1024

*** ChampSim Multicore Out-of-Order Simulator ***

Warmup Instructions: 50000000
Simulation Instructions: 50000000
Number of CPUs: 1
LLC sets: 2048
LLC ways: 16
Off-chip DRAM Size: 4096 MB Channels: 1 Width: 64-bit Data Rate: 3200 MT/s

CPU 0 runs /home/ykhodke/ChampSim/dpc3_traces/spec_gobmk_001.champsimtrace.xz
CPU 0 L1D next line prefetcher
Heartbeat CPU 0 instructions: 10000003 cycles: 3506620 heartbeat IPC: 2.85175 cumulative IPC: 2.85175 (Simulation time: 0 hr 0 min 11 sec) 
Heartbeat CPU 0 instructions: 20000002 cycles: 6986659 heartbeat IPC: 2.87353 cumulative IPC: 2.8626 (Simulation time: 0 hr 0 min 23 sec) 
Heartbeat CPU 0 instructions: 30000002 cycles: 10505217 heartbeat IPC: 2.84207 cumulative IPC: 2.85572 (Simulation time: 0 hr 0 min 35 sec) 
Heartbeat CPU 0 instructions: 40000001 cycles: 14023982 heartbeat IPC: 2.84191 cumulative IPC: 2.85226 (Simulation time: 0 hr 0 min 47 sec) 
Heartbeat CPU 0 instructions: 50000001 cycles: 17563741 heartbeat IPC: 2.82505 cumulative IPC: 2.84677 (Simulation time: 0 hr 0 min 59 sec) 

Warmup complete CPU 0 instructions: 50000001 cycles: 17563741 (Simulation time: 0 hr 0 min 59 sec) 

Heartbeat CPU 0 instructions: 60000000 cycles: 26768874 heartbeat IPC: 1.08635 cumulative IPC: 1.08635 (Simulation time: 0 hr 1 min 9 sec) 
Heartbeat CPU 0 instructions: 70000002 cycles: 35693323 heartbeat IPC: 1.12052 cumulative IPC: 1.10317 (Simulation time: 0 hr 1 min 19 sec) 
Heartbeat CPU 0 instructions: 80000003 cycles: 44964705 heartbeat IPC: 1.07859 cumulative IPC: 1.09485 (Simulation time: 0 hr 1 min 29 sec) 
Heartbeat CPU 0 instructions: 90000001 cycles: 53866729 heartbeat IPC: 1.12334 cumulative IPC: 1.10184 (Simulation time: 0 hr 1 min 39 sec) 
Heartbeat CPU 0 instructions: 100000003 cycles: 63118112 heartbeat IPC: 1.08092 cumulative IPC: 1.09759 (Simulation time: 0 hr 1 min 49 sec) 
Finished CPU 0 instructions: 50000002 cycles: 45554371 cumulative IPC: 1.09759 (Simulation time: 0 hr 1 min 49 sec) 

ChampSim completed all CPUs

Region of Interest Statistics

CPU 0 cumulative IPC: 1.09759 instructions: 50000002 cycles: 45554371
L1D TOTAL     ACCESS:   18103796  HIT:   17724104  MISS:     379692
L1D LOAD      ACCESS:    7266460  HIT:    7131163  MISS:     135297
L1D RFO       ACCESS:    3709430  HIT:    3604974  MISS:     104456
L1D PREFETCH  ACCESS:    7127906  HIT:    6987967  MISS:     139939
L1D WRITEBACK ACCESS:          0  HIT:          0  MISS:          0
L1D PREFETCH  REQUESTED:    7271236  ISSUED:    7188369  USEFUL:      45158  USELESS:      94786
L1D AVERAGE MISS LATENCY: 33.5586 cycles
L1I TOTAL     ACCESS:    8941486  HIT:    8616997  MISS:     324489
L1I LOAD      ACCESS:    8941486  HIT:    8616997  MISS:     324489
L1I RFO       ACCESS:          0  HIT:          0  MISS:          0
L1I PREFETCH  ACCESS:          0  HIT:          0  MISS:          0
L1I WRITEBACK ACCESS:          0  HIT:          0  MISS:          0
L1I PREFETCH  REQUESTED:          0  ISSUED:          0  USEFUL:          0  USELESS:          0
L1I AVERAGE MISS LATENCY: 15.6652 cycles
L2C TOTAL     ACCESS:    1211980  HIT:    1089107  MISS:     122873
L2C LOAD      ACCESS:     435243  HIT:     390528  MISS:      44715
L2C RFO       ACCESS:     104162  HIT:      70529  MISS:      33633
L2C PREFETCH  ACCESS:     533249  HIT:     488774  MISS:      44475
L2C WRITEBACK ACCESS:     139326  HIT:     139276  MISS:         50
L2C PREFETCH  REQUESTED:     585980  ISSUED:     585953  USEFUL:       3365  USELESS:      41210
L2C AVERAGE MISS LATENCY: 65.5886 cycles
LLC TOTAL     ACCESS:     264199  HIT:     227948  MISS:      36251
LLC LOAD      ACCESS:      44711  HIT:      36022  MISS:       8689
LLC RFO       ACCESS:      33633  HIT:      26753  MISS:       6880
LLC PREFETCH  ACCESS:     141536  HIT:     121165  MISS:      20371
LLC WRITEBACK ACCESS:      44319  HIT:      44008  MISS:        311
LLC PREFETCH  REQUESTED:          0  ISSUED:          0  USEFUL:       1534  USELESS:      17490
LLC AVERAGE MISS LATENCY: 178.957 cycles
Major fault: 0 Minor fault: 4156
CPU 0 L1D next line prefetcher final stats

DRAM Statistics
 CHANNEL 0
 RQ ROW_BUFFER_HIT:       4696  ROW_BUFFER_MISS:      31244
 DBUS_CONGESTED:      20841
 WQ ROW_BUFFER_HIT:       1506  ROW_BUFFER_MISS:      14759  FULL:          0

 AVG_CONGESTED_CYCLE: 4

CPU 0 Branch Prediction Accuracy: 94.7729% MPKI: 9.72684 Average ROB Occupancy at Mispredict: 51.279

Branch types
NOT_BRANCH: 40695383 81.3908%
BRANCH_DIRECT_JUMP: 422107 0.844214%
BRANCH_INDIRECT: 65 0.00013%
BRANCH_CONDITIONAL: 8105005 16.21%
BRANCH_DIRECT_CALL: 374913 0.749826%
BRANCH_INDIRECT_CALL: 13657 0.027314%
BRANCH_RETURN: 388556 0.777112%
BRANCH_OTHER: 0 0%

