Initialize SIGNATURE TABLE
ST_SET: 1
ST_WAY: 256
ST_TAG_BIT: 16
ST_TAG_MASK: ffff

Initialize PATTERN TABLE
PT_SET: 512
PT_WAY: 4
SIG_DELTA_BIT: 7
C_SIG_BIT: 4
C_DELTA_BIT: 4

Initialize PREFETCH FILTER
FILTER_SET: 1024

*** ChampSim Multicore Out-of-Order Simulator ***

Warmup Instructions: 50000000
Simulation Instructions: 50000000
Number of CPUs: 1
LLC sets: 2048
LLC ways: 16
Off-chip DRAM Size: 4096 MB Channels: 1 Width: 64-bit Data Rate: 3200 MT/s

CPU 0 runs /home/ykhodke/ChampSim/dpc3_traces/spec_gobmk_001.champsimtrace.xz
L1I D-JOLT instruction prefetcher has been constructed!
CPU 0 L1D next line prefetcher
Heartbeat CPU 0 instructions: 10000003 cycles: 3508902 heartbeat IPC: 2.8499 cumulative IPC: 2.8499 (Simulation time: 0 hr 2 min 46 sec) 
Heartbeat CPU 0 instructions: 20000002 cycles: 6989972 heartbeat IPC: 2.87268 cumulative IPC: 2.86124 (Simulation time: 0 hr 5 min 24 sec) 
Heartbeat CPU 0 instructions: 30000002 cycles: 10508834 heartbeat IPC: 2.84183 cumulative IPC: 2.85474 (Simulation time: 0 hr 7 min 59 sec) 
Heartbeat CPU 0 instructions: 40000001 cycles: 14027948 heartbeat IPC: 2.84162 cumulative IPC: 2.85145 (Simulation time: 0 hr 10 min 33 sec) 
Heartbeat CPU 0 instructions: 50000001 cycles: 17568025 heartbeat IPC: 2.8248 cumulative IPC: 2.84608 (Simulation time: 0 hr 13 min 13 sec) 

Warmup complete CPU 0 instructions: 50000001 cycles: 17568025 (Simulation time: 0 hr 13 min 13 sec) 

Heartbeat CPU 0 instructions: 60000000 cycles: 26330276 heartbeat IPC: 1.14126 cumulative IPC: 1.14126 (Simulation time: 0 hr 15 min 26 sec) 
Heartbeat CPU 0 instructions: 70000002 cycles: 34724048 heartbeat IPC: 1.19136 cumulative IPC: 1.16577 (Simulation time: 0 hr 17 min 37 sec) 
Heartbeat CPU 0 instructions: 80000003 cycles: 43554425 heartbeat IPC: 1.13245 cumulative IPC: 1.15445 (Simulation time: 0 hr 19 min 45 sec) 
Heartbeat CPU 0 instructions: 90000001 cycles: 52050792 heartbeat IPC: 1.17697 cumulative IPC: 1.16 (Simulation time: 0 hr 21 min 51 sec) 
Heartbeat CPU 0 instructions: 100000003 cycles: 60866817 heartbeat IPC: 1.1343 cumulative IPC: 1.15477 (Simulation time: 0 hr 24 min 3 sec) 
Finished CPU 0 instructions: 50000002 cycles: 43298792 cumulative IPC: 1.15477 (Simulation time: 0 hr 24 min 3 sec) 

ChampSim completed all CPUs

Region of Interest Statistics

CPU 0 cumulative IPC: 1.15477 instructions: 50000002 cycles: 43298792
L1D TOTAL     ACCESS:   17982607  HIT:   17603105  MISS:     379502
L1D LOAD      ACCESS:    7210431  HIT:    7075211  MISS:     135220
L1D RFO       ACCESS:    3700872  HIT:    3596305  MISS:     104567
L1D PREFETCH  ACCESS:    7071304  HIT:    6931589  MISS:     139715
L1D WRITEBACK ACCESS:          0  HIT:          0  MISS:          0
L1D PREFETCH  REQUESTED:    7215828  ISSUED:    7133143  USEFUL:      45035  USELESS:      94686
L1D AVERAGE MISS LATENCY: 33.726 cycles
L1I TOTAL     ACCESS:   15002777  HIT:   13109575  MISS:    1893202
L1I LOAD      ACCESS:    8984462  HIT:    8939796  MISS:      44666
L1I RFO       ACCESS:          0  HIT:          0  MISS:          0
L1I PREFETCH  ACCESS:    6018315  HIT:    4169779  MISS:    1848536
L1I WRITEBACK ACCESS:          0  HIT:          0  MISS:          0
L1I PREFETCH  REQUESTED:    6323776  ISSUED:    6065316  USEFUL:     867988  USELESS:     980527
L1I AVERAGE MISS LATENCY: 15.1894 cycles
L2C TOTAL     ACCESS:    3294106  HIT:    3166479  MISS:     127627
L2C LOAD      ACCESS:     152436  HIT:     116745  MISS:      35691
L2C RFO       ACCESS:     104211  HIT:      69753  MISS:      34458
L2C PREFETCH  ACCESS:    2898170  HIT:    2840779  MISS:      57391
L2C WRITEBACK ACCESS:     139289  HIT:     139202  MISS:         87
L2C PREFETCH  REQUESTED:    1513698  ISSUED:    1513594  USEFUL:       5100  USELESS:      52604
L2C AVERAGE MISS LATENCY: 63.7366 cycles
LLC TOTAL     ACCESS:     280453  HIT:     246880  MISS:      33573
LLC LOAD      ACCESS:      35686  HIT:      27545  MISS:       8141
LLC RFO       ACCESS:      34458  HIT:      28382  MISS:       6076
LLC PREFETCH  ACCESS:     164750  HIT:     145606  MISS:      19144
LLC WRITEBACK ACCESS:      45559  HIT:      45347  MISS:        212
LLC PREFETCH  REQUESTED:          0  ISSUED:          0  USEFUL:       1260  USELESS:      16717
LLC AVERAGE MISS LATENCY: 180.441 cycles
Major fault: 0 Minor fault: 4162
CPU 0 L1D next line prefetcher final stats

DRAM Statistics
 CHANNEL 0
 RQ ROW_BUFFER_HIT:       4300  ROW_BUFFER_MISS:      29061
 DBUS_CONGESTED:      17332
 WQ ROW_BUFFER_HIT:       1345  ROW_BUFFER_MISS:      14093  FULL:          0

 AVG_CONGESTED_CYCLE: 4

CPU 0 Branch Prediction Accuracy: 94.7729% MPKI: 9.72684 Average ROB Occupancy at Mispredict: 54.1201

Branch types
NOT_BRANCH: 40695383 81.3908%
BRANCH_DIRECT_JUMP: 422107 0.844214%
BRANCH_INDIRECT: 65 0.00013%
BRANCH_CONDITIONAL: 8105005 16.21%
BRANCH_DIRECT_CALL: 374913 0.749826%
BRANCH_INDIRECT_CALL: 13657 0.027314%
BRANCH_RETURN: 388556 0.777112%
BRANCH_OTHER: 0 0%

