Initialize SIGNATURE TABLE
ST_SET: 1
ST_WAY: 256
ST_TAG_BIT: 16
ST_TAG_MASK: ffff

Initialize PATTERN TABLE
PT_SET: 512
PT_WAY: 4
SIG_DELTA_BIT: 7
C_SIG_BIT: 4
C_DELTA_BIT: 4

Initialize PREFETCH FILTER
FILTER_SET: 1024

*** ChampSim Multicore Out-of-Order Simulator ***

Warmup Instructions: 50000000
Simulation Instructions: 50000000
Number of CPUs: 1
LLC sets: 2048
LLC ways: 16
Off-chip DRAM Size: 4096 MB Channels: 1 Width: 64-bit Data Rate: 3200 MT/s

CPU 0 runs /home/ykhodke/ChampSim/dpc3_traces/spec_gcc_002.champsimtrace.xz
LHT KB: 126.25
SCC KB: 1.56
Total KB: 127.81
CPU 0 L1D next line prefetcher
Heartbeat CPU 0 instructions: 10000002 cycles: 3560481 heartbeat IPC: 2.80861 cumulative IPC: 2.80861 (Simulation time: 0 hr 2 min 30 sec) 
Heartbeat CPU 0 instructions: 20000000 cycles: 7131537 heartbeat IPC: 2.80029 cumulative IPC: 2.80444 (Simulation time: 0 hr 5 min 27 sec) 
Heartbeat CPU 0 instructions: 30000000 cycles: 10799894 heartbeat IPC: 2.72602 cumulative IPC: 2.77781 (Simulation time: 0 hr 8 min 35 sec) 
Heartbeat CPU 0 instructions: 40000000 cycles: 14348632 heartbeat IPC: 2.8179 cumulative IPC: 2.78772 (Simulation time: 0 hr 11 min 41 sec) 
Heartbeat CPU 0 instructions: 50000002 cycles: 17833786 heartbeat IPC: 2.86931 cumulative IPC: 2.80367 (Simulation time: 0 hr 14 min 29 sec) 

Warmup complete CPU 0 instructions: 50000002 cycles: 17833786 (Simulation time: 0 hr 14 min 29 sec) 

Heartbeat CPU 0 instructions: 60000001 cycles: 56364026 heartbeat IPC: 0.259536 cumulative IPC: 0.259536 (Simulation time: 0 hr 20 min 32 sec) 
Heartbeat CPU 0 instructions: 70000001 cycles: 88355392 heartbeat IPC: 0.312584 cumulative IPC: 0.283601 (Simulation time: 0 hr 25 min 10 sec) 
Heartbeat CPU 0 instructions: 80000002 cycles: 136958976 heartbeat IPC: 0.205746 cumulative IPC: 0.251836 (Simulation time: 0 hr 28 min 49 sec) 
Heartbeat CPU 0 instructions: 90000001 cycles: 181058001 heartbeat IPC: 0.226762 cumulative IPC: 0.245062 (Simulation time: 0 hr 29 min 41 sec) 
Heartbeat CPU 0 instructions: 100000000 cycles: 211836422 heartbeat IPC: 0.324903 cumulative IPC: 0.257728 (Simulation time: 0 hr 30 min 9 sec) 
Finished CPU 0 instructions: 50000002 cycles: 194002644 cumulative IPC: 0.257728 (Simulation time: 0 hr 30 min 9 sec) 

ChampSim completed all CPUs

Region of Interest Statistics

CPU 0 cumulative IPC: 0.257728 instructions: 50000002 cycles: 194002644
L1D TOTAL     ACCESS:   18235165  HIT:   13001519  MISS:    5233646
L1D LOAD      ACCESS:    6358534  HIT:    5301392  MISS:    1057142
L1D RFO       ACCESS:    7032148  HIT:    3431316  MISS:    3600832
L1D PREFETCH  ACCESS:    4844483  HIT:    4268811  MISS:     575672
L1D WRITEBACK ACCESS:          0  HIT:          0  MISS:          0
L1D PREFETCH  REQUESTED:    6379287  ISSUED:    6309392  USEFUL:     415940  USELESS:     159948
L1D AVERAGE MISS LATENCY: 331.613 cycles
L1I TOTAL     ACCESS:   23543104  HIT:   21959949  MISS:    1583155
L1I LOAD      ACCESS:   12105234  HIT:   11945282  MISS:     159952
L1I RFO       ACCESS:          0  HIT:          0  MISS:          0
L1I PREFETCH  ACCESS:   11437870  HIT:   10014667  MISS:    1423203
L1I WRITEBACK ACCESS:          0  HIT:          0  MISS:          0
L1I PREFETCH  REQUESTED:   12857439  ISSUED:   12857320  USEFUL:     620010  USELESS:     803123
L1I AVERAGE MISS LATENCY: 41.4945 cycles
L2C TOTAL     ACCESS:   11114687  HIT:    5769764  MISS:    5344923
L2C LOAD      ACCESS:     292821  HIT:     128912  MISS:     163909
L2C RFO       ACCESS:    3599238  HIT:      12359  MISS:    3586879
L2C PREFETCH  ACCESS:    3497124  HIT:    1903235  MISS:    1593889
L2C WRITEBACK ACCESS:    3725504  HIT:    3725258  MISS:        246
L2C PREFETCH  REQUESTED:    3205725  ISSUED:    3205363  USEFUL:      30674  USELESS:    1563299
L2C AVERAGE MISS LATENCY: 339.153 cycles
LLC TOTAL     ACCESS:   10041951  HIT:    6267611  MISS:    3774340
LLC LOAD      ACCESS:     163751  HIT:      99059  MISS:      64692
LLC RFO       ACCESS:    3586879  HIT:     637264  MISS:    2949615
LLC PREFETCH  ACCESS:    2623875  HIT:    1863842  MISS:     760033
LLC WRITEBACK ACCESS:    3667446  HIT:    3667446  MISS:          0
LLC PREFETCH  REQUESTED:          0  ISSUED:          0  USEFUL:     145892  USELESS:     609886
LLC AVERAGE MISS LATENCY: 460.347 cycles
Major fault: 0 Minor fault: 4160
CPU 0 L1D next line prefetcher final stats

DRAM Statistics
 CHANNEL 0
 RQ ROW_BUFFER_HIT:    1002224  ROW_BUFFER_MISS:    2769512
 DBUS_CONGESTED:    5434252
 WQ ROW_BUFFER_HIT:     929639  ROW_BUFFER_MISS:    2199064  FULL:          0

 AVG_CONGESTED_CYCLE: 6

CPU 0 Branch Prediction Accuracy: 99.5987% MPKI: 0.82446 Average ROB Occupancy at Mispredict: 128.587

Branch types
NOT_BRANCH: 39726805 79.4536%
BRANCH_DIRECT_JUMP: 391438 0.782876%
BRANCH_INDIRECT: 62076 0.124152%
BRANCH_CONDITIONAL: 8421541 16.8431%
BRANCH_DIRECT_CALL: 672962 1.34592%
BRANCH_INDIRECT_CALL: 26115 0.05223%
BRANCH_RETURN: 699082 1.39816%
BRANCH_OTHER: 0 0%

