Initialize SIGNATURE TABLE
ST_SET: 1
ST_WAY: 256
ST_TAG_BIT: 16
ST_TAG_MASK: ffff

Initialize PATTERN TABLE
PT_SET: 512
PT_WAY: 4
SIG_DELTA_BIT: 7
C_SIG_BIT: 4
C_DELTA_BIT: 4

Initialize PREFETCH FILTER
FILTER_SET: 1024

*** ChampSim Multicore Out-of-Order Simulator ***

Warmup Instructions: 50000000
Simulation Instructions: 50000000
Number of CPUs: 1
LLC sets: 2048
LLC ways: 16
Off-chip DRAM Size: 4096 MB Channels: 1 Width: 64-bit Data Rate: 3200 MT/s

CPU 0 runs /home/ykhodke/ChampSim/dpc3_traces/603.bwaves_s-3699B.champsimtrace.xz
CPU 0 L1D next line prefetcher
Heartbeat CPU 0 instructions: 10000000 cycles: 3420598 heartbeat IPC: 2.92347 cumulative IPC: 2.92347 (Simulation time: 0 hr 0 min 17 sec) 
Heartbeat CPU 0 instructions: 20000003 cycles: 6826756 heartbeat IPC: 2.93586 cumulative IPC: 2.92965 (Simulation time: 0 hr 0 min 34 sec) 
Heartbeat CPU 0 instructions: 30000002 cycles: 10233039 heartbeat IPC: 2.93575 cumulative IPC: 2.93168 (Simulation time: 0 hr 0 min 52 sec) 
Heartbeat CPU 0 instructions: 40000002 cycles: 13656372 heartbeat IPC: 2.92113 cumulative IPC: 2.92904 (Simulation time: 0 hr 1 min 9 sec) 
Heartbeat CPU 0 instructions: 50000003 cycles: 17076944 heartbeat IPC: 2.92349 cumulative IPC: 2.92792 (Simulation time: 0 hr 1 min 25 sec) 

Warmup complete CPU 0 instructions: 50000003 cycles: 17076944 (Simulation time: 0 hr 1 min 25 sec) 

Heartbeat CPU 0 instructions: 60000001 cycles: 23600978 heartbeat IPC: 1.53279 cumulative IPC: 1.53279 (Simulation time: 0 hr 1 min 42 sec) 
Heartbeat CPU 0 instructions: 70000001 cycles: 30123412 heartbeat IPC: 1.53317 cumulative IPC: 1.53298 (Simulation time: 0 hr 1 min 58 sec) 
Heartbeat CPU 0 instructions: 80000000 cycles: 36639877 heartbeat IPC: 1.53457 cumulative IPC: 1.53351 (Simulation time: 0 hr 2 min 15 sec) 
Heartbeat CPU 0 instructions: 90000003 cycles: 43158364 heartbeat IPC: 1.5341 cumulative IPC: 1.53366 (Simulation time: 0 hr 2 min 32 sec) 
Heartbeat CPU 0 instructions: 100000001 cycles: 49652673 heartbeat IPC: 1.53981 cumulative IPC: 1.53489 (Simulation time: 0 hr 2 min 48 sec) 
Finished CPU 0 instructions: 50000001 cycles: 32575730 cumulative IPC: 1.53489 (Simulation time: 0 hr 2 min 48 sec) 

ChampSim completed all CPUs

Region of Interest Statistics

CPU 0 cumulative IPC: 1.53489 instructions: 50000001 cycles: 32575730
L1D TOTAL     ACCESS:   16162771  HIT:   16160849  MISS:       1922
L1D LOAD      ACCESS:    7289134  HIT:    7289095  MISS:         39
L1D RFO       ACCESS:    1676878  HIT:    1675335  MISS:       1543
L1D PREFETCH  ACCESS:    7196759  HIT:    7196419  MISS:        340
L1D WRITEBACK ACCESS:          0  HIT:          0  MISS:          0
L1D PREFETCH  REQUESTED:    7289195  ISSUED:    7242775  USEFUL:        317  USELESS:         82
L1D AVERAGE MISS LATENCY: 174.71 cycles
L1I TOTAL     ACCESS:   11036502  HIT:   11036502  MISS:          0
L1I LOAD      ACCESS:   10676498  HIT:   10676498  MISS:          0
L1I RFO       ACCESS:          0  HIT:          0  MISS:          0
L1I PREFETCH  ACCESS:     360004  HIT:     360004  MISS:          0
L1I WRITEBACK ACCESS:          0  HIT:          0  MISS:          0
L1I PREFETCH  REQUESTED:     360004  ISSUED:     360004  USEFUL:          0  USELESS:          0
L1I AVERAGE MISS LATENCY: -nan cycles
L2C TOTAL     ACCESS:       3743  HIT:       1902  MISS:       1841
L2C LOAD      ACCESS:         39  HIT:         34  MISS:          5
L2C RFO       ACCESS:       1468  HIT:         12  MISS:       1456
L2C PREFETCH  ACCESS:        675  HIT:        295  MISS:        380
L2C WRITEBACK ACCESS:       1561  HIT:       1561  MISS:          0
L2C PREFETCH  REQUESTED:       2148  ISSUED:       2148  USEFUL:          1  USELESS:        486
L2C AVERAGE MISS LATENCY: 178.443 cycles
LLC TOTAL     ACCESS:       5214  HIT:       3369  MISS:       1845
LLC LOAD      ACCESS:          5  HIT:          0  MISS:          5
LLC RFO       ACCESS:       1453  HIT:         58  MISS:       1395
LLC PREFETCH  ACCESS:       2195  HIT:       1750  MISS:        445
LLC WRITEBACK ACCESS:       1561  HIT:       1561  MISS:          0
LLC PREFETCH  REQUESTED:          0  ISSUED:          0  USEFUL:         58  USELESS:        478
LLC AVERAGE MISS LATENCY: 188.067 cycles
Major fault: 0 Minor fault: 908
CPU 0 L1D next line prefetcher final stats

DRAM Statistics
 CHANNEL 0
 RQ ROW_BUFFER_HIT:        220  ROW_BUFFER_MISS:       1625
 DBUS_CONGESTED:       1334
 WQ ROW_BUFFER_HIT:        696  ROW_BUFFER_MISS:        868  FULL:          0

 AVG_CONGESTED_CYCLE: 6

CPU 0 Branch Prediction Accuracy: 99.9155% MPKI: 0.12258 Average ROB Occupancy at Mispredict: 89.4715

Branch types
NOT_BRANCH: 42745793 85.4916%
BRANCH_DIRECT_JUMP: 530397 1.06079%
BRANCH_INDIRECT: 43363 0.086726%
BRANCH_CONDITIONAL: 6567442 13.1349%
BRANCH_DIRECT_CALL: 56410 0.11282%
BRANCH_INDIRECT_CALL: 0 0%
BRANCH_RETURN: 56411 0.112822%
BRANCH_OTHER: 0 0%

