Initialize SIGNATURE TABLE
ST_SET: 1
ST_WAY: 256
ST_TAG_BIT: 16
ST_TAG_MASK: ffff

Initialize PATTERN TABLE
PT_SET: 512
PT_WAY: 4
SIG_DELTA_BIT: 7
C_SIG_BIT: 4
C_DELTA_BIT: 4

Initialize PREFETCH FILTER
FILTER_SET: 1024

*** ChampSim Multicore Out-of-Order Simulator ***

Warmup Instructions: 50000000
Simulation Instructions: 50000000
Number of CPUs: 1
LLC sets: 2048
LLC ways: 16
Off-chip DRAM Size: 4096 MB Channels: 1 Width: 64-bit Data Rate: 3200 MT/s

CPU 0 runs /home/ykhodke/ChampSim/dpc3_traces/605.mcf_s-665B.champsimtrace.xz
CPU 0 L1D next line prefetcher
Heartbeat CPU 0 instructions: 10000000 cycles: 4106379 heartbeat IPC: 2.43524 cumulative IPC: 2.43524 (Simulation time: 0 hr 0 min 22 sec) 
Heartbeat CPU 0 instructions: 20000000 cycles: 8221163 heartbeat IPC: 2.43026 cumulative IPC: 2.43275 (Simulation time: 0 hr 0 min 44 sec) 
Heartbeat CPU 0 instructions: 30000002 cycles: 12321176 heartbeat IPC: 2.43902 cumulative IPC: 2.43483 (Simulation time: 0 hr 1 min 5 sec) 
Heartbeat CPU 0 instructions: 40000000 cycles: 16424662 heartbeat IPC: 2.43695 cumulative IPC: 2.43536 (Simulation time: 0 hr 1 min 27 sec) 
Heartbeat CPU 0 instructions: 50000000 cycles: 20523462 heartbeat IPC: 2.43974 cumulative IPC: 2.43624 (Simulation time: 0 hr 1 min 49 sec) 

Warmup complete CPU 0 instructions: 50000004 cycles: 20523463 (Simulation time: 0 hr 1 min 49 sec) 

Heartbeat CPU 0 instructions: 60000003 cycles: 44542783 heartbeat IPC: 0.416332 cumulative IPC: 0.416331 (Simulation time: 0 hr 2 min 10 sec) 
Heartbeat CPU 0 instructions: 70000003 cycles: 68305837 heartbeat IPC: 0.420821 cumulative IPC: 0.418564 (Simulation time: 0 hr 2 min 31 sec) 
Heartbeat CPU 0 instructions: 80000001 cycles: 92318299 heartbeat IPC: 0.41645 cumulative IPC: 0.417857 (Simulation time: 0 hr 2 min 53 sec) 
Heartbeat CPU 0 instructions: 90000001 cycles: 116734186 heartbeat IPC: 0.409569 cumulative IPC: 0.415754 (Simulation time: 0 hr 3 min 14 sec) 
Heartbeat CPU 0 instructions: 100000000 cycles: 139453332 heartbeat IPC: 0.440157 cumulative IPC: 0.420416 (Simulation time: 0 hr 3 min 35 sec) 
Finished CPU 0 instructions: 50000000 cycles: 118929870 cumulative IPC: 0.420416 (Simulation time: 0 hr 3 min 35 sec) 

ChampSim completed all CPUs

Region of Interest Statistics

CPU 0 cumulative IPC: 0.420416 instructions: 50000000 cycles: 118929870
L1D TOTAL     ACCESS:   30411942  HIT:   27229220  MISS:    3182722
L1D LOAD      ACCESS:   12756054  HIT:   11151258  MISS:    1604796
L1D RFO       ACCESS:    5404376  HIT:    5206418  MISS:     197958
L1D PREFETCH  ACCESS:   12251512  HIT:   10871544  MISS:    1379968
L1D WRITEBACK ACCESS:          0  HIT:          0  MISS:          0
L1D PREFETCH  REQUESTED:   12901365  ISSUED:   12788785  USEFUL:     246456  USELESS:    1133523
L1D AVERAGE MISS LATENCY: 67.7131 cycles
L1I TOTAL     ACCESS:    9602756  HIT:    9602756  MISS:          0
L1I LOAD      ACCESS:    9392537  HIT:    9392537  MISS:          0
L1I RFO       ACCESS:          0  HIT:          0  MISS:          0
L1I PREFETCH  ACCESS:     210219  HIT:     210219  MISS:          0
L1I WRITEBACK ACCESS:          0  HIT:          0  MISS:          0
L1I PREFETCH  REQUESTED:     210219  ISSUED:     210219  USEFUL:          0  USELESS:          0
L1I AVERAGE MISS LATENCY: -nan cycles
L2C TOTAL     ACCESS:    3907711  HIT:    1797817  MISS:    2109894
L2C LOAD      ACCESS:    1410278  HIT:     534982  MISS:     875296
L2C RFO       ACCESS:     197887  HIT:      76729  MISS:     121158
L2C PREFETCH  ACCESS:    2013991  HIT:     900855  MISS:    1113136
L2C WRITEBACK ACCESS:     285555  HIT:     285251  MISS:        304
L2C PREFETCH  REQUESTED:    2340255  ISSUED:    2340255  USEFUL:      91309  USELESS:    1021417
L2C AVERAGE MISS LATENCY: 91.7934 cycles
LLC TOTAL     ACCESS:    2938699  HIT:    1973680  MISS:     965019
LLC LOAD      ACCESS:     875282  HIT:     586887  MISS:     288395
LLC RFO       ACCESS:     121155  HIT:     117787  MISS:       3368
LLC PREFETCH  ACCESS:    1764911  HIT:    1092764  MISS:     672147
LLC WRITEBACK ACCESS:     177351  HIT:     176242  MISS:       1109
LLC PREFETCH  REQUESTED:          0  ISSUED:          0  USEFUL:     102551  USELESS:     569162
LLC AVERAGE MISS LATENCY: 188.52 cycles
Major fault: 0 Minor fault: 15068
CPU 0 L1D next line prefetcher final stats

DRAM Statistics
 CHANNEL 0
 RQ ROW_BUFFER_HIT:     136296  ROW_BUFFER_MISS:     827581
 DBUS_CONGESTED:     328186
 WQ ROW_BUFFER_HIT:       4888  ROW_BUFFER_MISS:      10371  FULL:          0

 AVG_CONGESTED_CYCLE: 5

CPU 0 Branch Prediction Accuracy: 93.133% MPKI: 17.08 Average ROB Occupancy at Mispredict: 26.6727

Branch types
NOT_BRANCH: 37563287 75.1266%
BRANCH_DIRECT_JUMP: 1317761 2.63552%
BRANCH_INDIRECT: 0 0%
BRANCH_CONDITIONAL: 8419917 16.8398%
BRANCH_DIRECT_CALL: 1274782 2.54956%
BRANCH_INDIRECT_CALL: 74550 0.1491%
BRANCH_RETURN: 1349334 2.69867%
BRANCH_OTHER: 0 0%

