Initialize SIGNATURE TABLE
ST_SET: 1
ST_WAY: 256
ST_TAG_BIT: 16
ST_TAG_MASK: ffff

Initialize PATTERN TABLE
PT_SET: 512
PT_WAY: 4
SIG_DELTA_BIT: 7
C_SIG_BIT: 4
C_DELTA_BIT: 4

Initialize PREFETCH FILTER
FILTER_SET: 1024

*** ChampSim Multicore Out-of-Order Simulator ***

Warmup Instructions: 50000000
Simulation Instructions: 50000000
Number of CPUs: 1
LLC sets: 2048
LLC ways: 16
Off-chip DRAM Size: 4096 MB Channels: 1 Width: 64-bit Data Rate: 3200 MT/s

CPU 0 runs /home/ykhodke/ChampSim/dpc3_traces/607.cactuBSSN_s-2421B.champsimtrace.xz
CPU 0 L1D next line prefetcher
Heartbeat CPU 0 instructions: 10000002 cycles: 4829120 heartbeat IPC: 2.07077 cumulative IPC: 2.07077 (Simulation time: 0 hr 0 min 23 sec) 
Heartbeat CPU 0 instructions: 20000001 cycles: 9655933 heartbeat IPC: 2.07176 cumulative IPC: 2.07127 (Simulation time: 0 hr 0 min 47 sec) 
Heartbeat CPU 0 instructions: 30000002 cycles: 14484935 heartbeat IPC: 2.07082 cumulative IPC: 2.07112 (Simulation time: 0 hr 1 min 11 sec) 
Heartbeat CPU 0 instructions: 40000003 cycles: 19313385 heartbeat IPC: 2.07106 cumulative IPC: 2.0711 (Simulation time: 0 hr 1 min 35 sec) 
Heartbeat CPU 0 instructions: 50000000 cycles: 24142768 heartbeat IPC: 2.07066 cumulative IPC: 2.07101 (Simulation time: 0 hr 2 min 0 sec) 

Warmup complete CPU 0 instructions: 50000004 cycles: 24142769 (Simulation time: 0 hr 2 min 0 sec) 

Heartbeat CPU 0 instructions: 60000000 cycles: 29639721 heartbeat IPC: 1.81919 cumulative IPC: 1.81919 (Simulation time: 0 hr 2 min 24 sec) 
Heartbeat CPU 0 instructions: 70000003 cycles: 34673999 heartbeat IPC: 1.98638 cumulative IPC: 1.89911 (Simulation time: 0 hr 2 min 47 sec) 
Heartbeat CPU 0 instructions: 80000001 cycles: 39713146 heartbeat IPC: 1.98446 cumulative IPC: 1.92674 (Simulation time: 0 hr 3 min 11 sec) 
Heartbeat CPU 0 instructions: 90000000 cycles: 44762408 heartbeat IPC: 1.98049 cumulative IPC: 1.9399 (Simulation time: 0 hr 3 min 35 sec) 
Heartbeat CPU 0 instructions: 100000002 cycles: 49796199 heartbeat IPC: 1.98657 cumulative IPC: 1.94906 (Simulation time: 0 hr 3 min 58 sec) 
Finished CPU 0 instructions: 50000002 cycles: 25653431 cumulative IPC: 1.94906 (Simulation time: 0 hr 3 min 58 sec) 

ChampSim completed all CPUs

Region of Interest Statistics

CPU 0 cumulative IPC: 1.94906 instructions: 50000002 cycles: 25653431
L1D TOTAL     ACCESS:   21062302  HIT:   11658183  MISS:    9404119
L1D LOAD      ACCESS:    8743359  HIT:    3406649  MISS:    5336710
L1D RFO       ACCESS:    5576033  HIT:    5164159  MISS:     411874
L1D PREFETCH  ACCESS:    6742910  HIT:    3087375  MISS:    3655535
L1D WRITEBACK ACCESS:          0  HIT:          0  MISS:          0
L1D PREFETCH  REQUESTED:    8856889  ISSUED:    7028856  USEFUL:      26616  USELESS:    3628961
L1D AVERAGE MISS LATENCY: 22.1435 cycles
L1I TOTAL     ACCESS:   11463885  HIT:   11393785  MISS:      70100
L1I LOAD      ACCESS:    7112495  HIT:    7112148  MISS:        347
L1I RFO       ACCESS:          0  HIT:          0  MISS:          0
L1I PREFETCH  ACCESS:    4351390  HIT:    4281637  MISS:      69753
L1I WRITEBACK ACCESS:          0  HIT:          0  MISS:          0
L1I PREFETCH  REQUESTED:    4351710  ISSUED:    4351710  USEFUL:      64835  USELESS:       4906
L1I AVERAGE MISS LATENCY: 17.47 cycles
L2C TOTAL     ACCESS:   12893294  HIT:   12414219  MISS:     479075
L2C LOAD      ACCESS:    5233985  HIT:    5222914  MISS:      11071
L2C RFO       ACCESS:     409614  HIT:     408449  MISS:       1165
L2C PREFETCH  ACCESS:    6773139  HIT:    6306303  MISS:     466836
L2C WRITEBACK ACCESS:     476556  HIT:     476553  MISS:          3
L2C PREFETCH  REQUESTED:    9804395  ISSUED:    8041072  USEFUL:     461580  USELESS:       5590
L2C AVERAGE MISS LATENCY: 87.5784 cycles
LLC TOTAL     ACCESS:    1502790  HIT:    1123672  MISS:     379118
LLC LOAD      ACCESS:      11070  HIT:       3699  MISS:       7371
LLC RFO       ACCESS:       1162  HIT:         60  MISS:       1102
LLC PREFETCH  ACCESS:    1443288  HIT:    1072682  MISS:     370606
LLC WRITEBACK ACCESS:      47270  HIT:      47231  MISS:         39
LLC PREFETCH  REQUESTED:          0  ISSUED:          0  USEFUL:       2069  USELESS:     361828
LLC AVERAGE MISS LATENCY: 353.504 cycles
Major fault: 0 Minor fault: 8505
CPU 0 L1D next line prefetcher final stats

DRAM Statistics
 CHANNEL 0
 RQ ROW_BUFFER_HIT:     201714  ROW_BUFFER_MISS:     177365
 DBUS_CONGESTED:      81610
 WQ ROW_BUFFER_HIT:      21949  ROW_BUFFER_MISS:      27594  FULL:          0

 AVG_CONGESTED_CYCLE: 5

CPU 0 Branch Prediction Accuracy: 98.9708% MPKI: 0.02072 Average ROB Occupancy at Mispredict: 75.5608

Branch types
NOT_BRANCH: 49899106 99.7982%
BRANCH_DIRECT_JUMP: 16920 0.03384%
BRANCH_INDIRECT: 14629 0.029258%
BRANCH_CONDITIONAL: 57073 0.114146%
BRANCH_DIRECT_CALL: 6013 0.012026%
BRANCH_INDIRECT_CALL: 3 6e-06%
BRANCH_RETURN: 6018 0.012036%
BRANCH_OTHER: 0 0%

