Initialize SIGNATURE TABLE
ST_SET: 1
ST_WAY: 256
ST_TAG_BIT: 16
ST_TAG_MASK: ffff

Initialize PATTERN TABLE
PT_SET: 512
PT_WAY: 4
SIG_DELTA_BIT: 7
C_SIG_BIT: 4
C_DELTA_BIT: 4

Initialize PREFETCH FILTER
FILTER_SET: 1024

*** ChampSim Multicore Out-of-Order Simulator ***

Warmup Instructions: 50000000
Simulation Instructions: 50000000
Number of CPUs: 1
LLC sets: 2048
LLC ways: 16
Off-chip DRAM Size: 4096 MB Channels: 1 Width: 64-bit Data Rate: 3200 MT/s

CPU 0 runs /home/ykhodke/ChampSim/dpc3_traces/620.omnetpp_s-874B.champsimtrace.xz
CPU 0 L1D next line prefetcher
Heartbeat CPU 0 instructions: 10000001 cycles: 5588369 heartbeat IPC: 1.78943 cumulative IPC: 1.78943 (Simulation time: 0 hr 0 min 29 sec) 
Heartbeat CPU 0 instructions: 20000001 cycles: 11176488 heartbeat IPC: 1.78951 cumulative IPC: 1.78947 (Simulation time: 0 hr 0 min 57 sec) 
Heartbeat CPU 0 instructions: 30000002 cycles: 16757340 heartbeat IPC: 1.79184 cumulative IPC: 1.79026 (Simulation time: 0 hr 1 min 26 sec) 
Heartbeat CPU 0 instructions: 40000000 cycles: 22354083 heartbeat IPC: 1.78675 cumulative IPC: 1.78938 (Simulation time: 0 hr 1 min 55 sec) 
Heartbeat CPU 0 instructions: 50000000 cycles: 27943042 heartbeat IPC: 1.78924 cumulative IPC: 1.78935 (Simulation time: 0 hr 2 min 23 sec) 

Warmup complete CPU 0 instructions: 50000001 cycles: 27943043 (Simulation time: 0 hr 2 min 23 sec) 

Heartbeat CPU 0 instructions: 60000001 cycles: 54369746 heartbeat IPC: 0.378405 cumulative IPC: 0.378405 (Simulation time: 0 hr 2 min 58 sec) 
Heartbeat CPU 0 instructions: 70000002 cycles: 80238177 heartbeat IPC: 0.386572 cumulative IPC: 0.382445 (Simulation time: 0 hr 3 min 32 sec) 
Heartbeat CPU 0 instructions: 80000002 cycles: 106572455 heartbeat IPC: 0.379733 cumulative IPC: 0.381537 (Simulation time: 0 hr 4 min 7 sec) 
Heartbeat CPU 0 instructions: 90000003 cycles: 132317572 heartbeat IPC: 0.388423 cumulative IPC: 0.383235 (Simulation time: 0 hr 4 min 41 sec) 
Heartbeat CPU 0 instructions: 100000000 cycles: 158941721 heartbeat IPC: 0.375599 cumulative IPC: 0.381683 (Simulation time: 0 hr 5 min 16 sec) 
Finished CPU 0 instructions: 50000000 cycles: 130998680 cumulative IPC: 0.381683 (Simulation time: 0 hr 5 min 16 sec) 

ChampSim completed all CPUs

Region of Interest Statistics

CPU 0 cumulative IPC: 0.381683 instructions: 50000000 cycles: 130998680
L1D TOTAL     ACCESS:   32203803  HIT:   30741680  MISS:    1462123
L1D LOAD      ACCESS:   11729322  HIT:   11002979  MISS:     726343
L1D RFO       ACCESS:    8990563  HIT:    8920628  MISS:      69935
L1D PREFETCH  ACCESS:   11483918  HIT:   10818073  MISS:     665845
L1D WRITEBACK ACCESS:          0  HIT:          0  MISS:          0
L1D PREFETCH  REQUESTED:   11767217  ISSUED:   11715348  USEFUL:     149949  USELESS:     515896
L1D AVERAGE MISS LATENCY: 118.323 cycles
L1I TOTAL     ACCESS:   25561663  HIT:   25007343  MISS:     554320
L1I LOAD      ACCESS:   11125146  HIT:   11122888  MISS:       2258
L1I RFO       ACCESS:          0  HIT:          0  MISS:          0
L1I PREFETCH  ACCESS:   14436517  HIT:   13884455  MISS:     552062
L1I WRITEBACK ACCESS:          0  HIT:          0  MISS:          0
L1I PREFETCH  REQUESTED:   14438922  ISSUED:   14438872  USEFUL:     219500  USELESS:     332580
L1I AVERAGE MISS LATENCY: 18.5015 cycles
L2C TOTAL     ACCESS:    2815625  HIT:    1842762  MISS:     972863
L2C LOAD      ACCESS:     715171  HIT:     256082  MISS:     459089
L2C RFO       ACCESS:      65027  HIT:      13761  MISS:      51266
L2C PREFETCH  ACCESS:    1561664  HIT:    1100200  MISS:     461464
L2C WRITEBACK ACCESS:     473763  HIT:     472719  MISS:       1044
L2C PREFETCH  REQUESTED:    1456678  ISSUED:    1456678  USEFUL:      29883  USELESS:     431665
L2C AVERAGE MISS LATENCY: 149.094 cycles
LLC TOTAL     ACCESS:    1981835  HIT:     970583  MISS:    1011252
LLC LOAD      ACCESS:     459061  HIT:     154247  MISS:     304814
LLC RFO       ACCESS:      51266  HIT:      18075  MISS:      33191
LLC PREFETCH  ACCESS:    1138698  HIT:     471463  MISS:     667235
LLC WRITEBACK ACCESS:     332810  HIT:     326798  MISS:       6012
LLC PREFETCH  REQUESTED:          0  ISSUED:          0  USEFUL:      73809  USELESS:     592893
LLC AVERAGE MISS LATENCY: 175.4 cycles
Major fault: 0 Minor fault: 46166
CPU 0 L1D next line prefetcher final stats

DRAM Statistics
 CHANNEL 0
 RQ ROW_BUFFER_HIT:     100490  ROW_BUFFER_MISS:     904743
 DBUS_CONGESTED:     536398
 WQ ROW_BUFFER_HIT:      36086  ROW_BUFFER_MISS:     220130  FULL:          0

 AVG_CONGESTED_CYCLE: 4

CPU 0 Branch Prediction Accuracy: 98.2025% MPKI: 3.73946 Average ROB Occupancy at Mispredict: 94.3639

Branch types
NOT_BRANCH: 39597984 79.196%
BRANCH_DIRECT_JUMP: 567491 1.13498%
BRANCH_INDIRECT: 167850 0.3357%
BRANCH_CONDITIONAL: 6697264 13.3945%
BRANCH_DIRECT_CALL: 888054 1.77611%
BRANCH_INDIRECT_CALL: 596602 1.1932%
BRANCH_RETURN: 1484650 2.9693%
BRANCH_OTHER: 0 0%

