Initialize SIGNATURE TABLE
ST_SET: 1
ST_WAY: 256
ST_TAG_BIT: 16
ST_TAG_MASK: ffff

Initialize PATTERN TABLE
PT_SET: 512
PT_WAY: 4
SIG_DELTA_BIT: 7
C_SIG_BIT: 4
C_DELTA_BIT: 4

Initialize PREFETCH FILTER
FILTER_SET: 1024

*** ChampSim Multicore Out-of-Order Simulator ***

Warmup Instructions: 50000000
Simulation Instructions: 50000000
Number of CPUs: 1
LLC sets: 2048
LLC ways: 16
Off-chip DRAM Size: 4096 MB Channels: 1 Width: 64-bit Data Rate: 3200 MT/s

CPU 0 runs /home/ykhodke/ChampSim/dpc3_traces/621.wrf_s-575B.champsimtrace.xz
CPU 0 L1D next line prefetcher
Heartbeat CPU 0 instructions: 10000000 cycles: 4328662 heartbeat IPC: 2.31018 cumulative IPC: 2.31018 (Simulation time: 0 hr 0 min 20 sec) 
Heartbeat CPU 0 instructions: 20000002 cycles: 8673312 heartbeat IPC: 2.30168 cumulative IPC: 2.30592 (Simulation time: 0 hr 0 min 42 sec) 
Heartbeat CPU 0 instructions: 30000000 cycles: 13029334 heartbeat IPC: 2.29567 cumulative IPC: 2.3025 (Simulation time: 0 hr 1 min 3 sec) 
Heartbeat CPU 0 instructions: 40000002 cycles: 17381178 heartbeat IPC: 2.29788 cumulative IPC: 2.30134 (Simulation time: 0 hr 1 min 24 sec) 
Heartbeat CPU 0 instructions: 50000002 cycles: 21730892 heartbeat IPC: 2.299 cumulative IPC: 2.30087 (Simulation time: 0 hr 1 min 45 sec) 

Warmup complete CPU 0 instructions: 50000002 cycles: 21730892 (Simulation time: 0 hr 1 min 45 sec) 

Heartbeat CPU 0 instructions: 60000003 cycles: 30397592 heartbeat IPC: 1.15384 cumulative IPC: 1.15384 (Simulation time: 0 hr 2 min 9 sec) 
Heartbeat CPU 0 instructions: 70000000 cycles: 39037894 heartbeat IPC: 1.15737 cumulative IPC: 1.1556 (Simulation time: 0 hr 2 min 33 sec) 
Heartbeat CPU 0 instructions: 80000000 cycles: 47624793 heartbeat IPC: 1.16456 cumulative IPC: 1.15857 (Simulation time: 0 hr 2 min 57 sec) 
Heartbeat CPU 0 instructions: 90000000 cycles: 56267880 heartbeat IPC: 1.15699 cumulative IPC: 1.15818 (Simulation time: 0 hr 3 min 21 sec) 
Heartbeat CPU 0 instructions: 100000001 cycles: 64877958 heartbeat IPC: 1.16143 cumulative IPC: 1.15883 (Simulation time: 0 hr 3 min 45 sec) 
Finished CPU 0 instructions: 50000000 cycles: 43147073 cumulative IPC: 1.15883 (Simulation time: 0 hr 3 min 45 sec) 

ChampSim completed all CPUs

Region of Interest Statistics

CPU 0 cumulative IPC: 1.15883 instructions: 50000000 cycles: 43147073
L1D TOTAL     ACCESS:   15293468  HIT:   15291919  MISS:       1549
L1D LOAD      ACCESS:    6687002  HIT:    6686710  MISS:        292
L1D RFO       ACCESS:    1925598  HIT:    1924843  MISS:        755
L1D PREFETCH  ACCESS:    6680868  HIT:    6680366  MISS:        502
L1D WRITEBACK ACCESS:          0  HIT:          0  MISS:          0
L1D PREFETCH  REQUESTED:    6687080  ISSUED:    6682278  USEFUL:        419  USELESS:         80
L1D AVERAGE MISS LATENCY: 132.171 cycles
L1I TOTAL     ACCESS:   17199785  HIT:   17199533  MISS:        252
L1I LOAD      ACCESS:   10572415  HIT:   10572402  MISS:         13
L1I RFO       ACCESS:          0  HIT:          0  MISS:          0
L1I PREFETCH  ACCESS:    6627370  HIT:    6627131  MISS:        239
L1I WRITEBACK ACCESS:          0  HIT:          0  MISS:          0
L1I PREFETCH  REQUESTED:    6627383  ISSUED:    6627383  USEFUL:        235  USELESS:          0
L1I AVERAGE MISS LATENCY: 16.3254 cycles
L2C TOTAL     ACCESS:       3226  HIT:       1755  MISS:       1471
L2C LOAD      ACCESS:        203  HIT:         44  MISS:        159
L2C RFO       ACCESS:        755  HIT:         27  MISS:        728
L2C PREFETCH  ACCESS:       1220  HIT:        636  MISS:        584
L2C WRITEBACK ACCESS:       1048  HIT:       1048  MISS:          0
L2C PREFETCH  REQUESTED:       2675  ISSUED:       2675  USEFUL:         26  USELESS:          0
L2C AVERAGE MISS LATENCY: 136.286 cycles
LLC TOTAL     ACCESS:       3087  HIT:       1484  MISS:       1603
LLC LOAD      ACCESS:        159  HIT:         44  MISS:        115
LLC RFO       ACCESS:        728  HIT:         16  MISS:        712
LLC PREFETCH  ACCESS:       2200  HIT:       1424  MISS:        776
LLC WRITEBACK ACCESS:          0  HIT:          0  MISS:          0
LLC PREFETCH  REQUESTED:          0  ISSUED:          0  USEFUL:         60  USELESS:          0
LLC AVERAGE MISS LATENCY: 154.808 cycles
Major fault: 0 Minor fault: 197
CPU 0 L1D next line prefetcher final stats

DRAM Statistics
 CHANNEL 0
 RQ ROW_BUFFER_HIT:        490  ROW_BUFFER_MISS:       1113
 DBUS_CONGESTED:        588
 WQ ROW_BUFFER_HIT:          0  ROW_BUFFER_MISS:          0  FULL:          0

 AVG_CONGESTED_CYCLE: 6

CPU 0 Branch Prediction Accuracy: 99.6866% MPKI: 0.41812 Average ROB Occupancy at Mispredict: 263.288

Branch types
NOT_BRANCH: 43328386 86.6568%
BRANCH_DIRECT_JUMP: 484649 0.969298%
BRANCH_INDIRECT: 0 0%
BRANCH_CONDITIONAL: 5043854 10.0877%
BRANCH_DIRECT_CALL: 571556 1.14311%
BRANCH_INDIRECT_CALL: 0 0%
BRANCH_RETURN: 571556 1.14311%
BRANCH_OTHER: 0 0%

