Initialize SIGNATURE TABLE
ST_SET: 1
ST_WAY: 256
ST_TAG_BIT: 16
ST_TAG_MASK: ffff

Initialize PATTERN TABLE
PT_SET: 512
PT_WAY: 4
SIG_DELTA_BIT: 7
C_SIG_BIT: 4
C_DELTA_BIT: 4

Initialize PREFETCH FILTER
FILTER_SET: 1024

*** ChampSim Multicore Out-of-Order Simulator ***

Warmup Instructions: 50000000
Simulation Instructions: 50000000
Number of CPUs: 1
LLC sets: 2048
LLC ways: 16
Off-chip DRAM Size: 4096 MB Channels: 1 Width: 64-bit Data Rate: 3200 MT/s

CPU 0 runs /home/ykhodke/ChampSim/dpc3_traces/625.x264_s-18B.champsimtrace.xz
CPU 0 L1D next line prefetcher
Heartbeat CPU 0 instructions: 10000001 cycles: 3382996 heartbeat IPC: 2.95596 cumulative IPC: 2.95596 (Simulation time: 0 hr 0 min 17 sec) 
Heartbeat CPU 0 instructions: 20000000 cycles: 6779370 heartbeat IPC: 2.94432 cumulative IPC: 2.95013 (Simulation time: 0 hr 0 min 34 sec) 
Heartbeat CPU 0 instructions: 30000000 cycles: 10161207 heartbeat IPC: 2.95697 cumulative IPC: 2.95241 (Simulation time: 0 hr 0 min 51 sec) 
Heartbeat CPU 0 instructions: 40000002 cycles: 13534730 heartbeat IPC: 2.96426 cumulative IPC: 2.95536 (Simulation time: 0 hr 1 min 8 sec) 
Heartbeat CPU 0 instructions: 50000003 cycles: 16903067 heartbeat IPC: 2.96882 cumulative IPC: 2.95804 (Simulation time: 0 hr 1 min 24 sec) 

Warmup complete CPU 0 instructions: 50000003 cycles: 16903067 (Simulation time: 0 hr 1 min 24 sec) 

Heartbeat CPU 0 instructions: 60000001 cycles: 22511636 heartbeat IPC: 1.78299 cumulative IPC: 1.78299 (Simulation time: 0 hr 1 min 40 sec) 
Heartbeat CPU 0 instructions: 70000000 cycles: 28134624 heartbeat IPC: 1.77841 cumulative IPC: 1.7807 (Simulation time: 0 hr 1 min 55 sec) 
Heartbeat CPU 0 instructions: 80000000 cycles: 33764658 heartbeat IPC: 1.77619 cumulative IPC: 1.77919 (Simulation time: 0 hr 2 min 10 sec) 
Heartbeat CPU 0 instructions: 90000002 cycles: 39401702 heartbeat IPC: 1.77398 cumulative IPC: 1.77789 (Simulation time: 0 hr 2 min 25 sec) 
Heartbeat CPU 0 instructions: 100000001 cycles: 45035420 heartbeat IPC: 1.77503 cumulative IPC: 1.77731 (Simulation time: 0 hr 2 min 40 sec) 
Finished CPU 0 instructions: 50000002 cycles: 28132354 cumulative IPC: 1.77731 (Simulation time: 0 hr 2 min 40 sec) 

ChampSim completed all CPUs

Region of Interest Statistics

CPU 0 cumulative IPC: 1.77731 instructions: 50000002 cycles: 28132354
L1D TOTAL     ACCESS:   10998679  HIT:   10980861  MISS:      17818
L1D LOAD      ACCESS:    3913694  HIT:    3898291  MISS:      15403
L1D RFO       ACCESS:    3265011  HIT:    3264524  MISS:        487
L1D PREFETCH  ACCESS:    3819974  HIT:    3818046  MISS:       1928
L1D WRITEBACK ACCESS:          0  HIT:          0  MISS:          0
L1D PREFETCH  REQUESTED:    3918125  ISSUED:    3827212  USEFUL:        316  USELESS:       1618
L1D AVERAGE MISS LATENCY: 83.8927 cycles
L1I TOTAL     ACCESS:    8948168  HIT:    8948168  MISS:          0
L1I LOAD      ACCESS:    8054614  HIT:    8054614  MISS:          0
L1I RFO       ACCESS:          0  HIT:          0  MISS:          0
L1I PREFETCH  ACCESS:     893554  HIT:     893554  MISS:          0
L1I WRITEBACK ACCESS:          0  HIT:          0  MISS:          0
L1I PREFETCH  REQUESTED:     893554  ISSUED:     893554  USEFUL:          0  USELESS:          0
L1I AVERAGE MISS LATENCY: -nan cycles
L2C TOTAL     ACCESS:      29179  HIT:      14047  MISS:      15132
L2C LOAD      ACCESS:      15381  HIT:       3450  MISS:      11931
L2C RFO       ACCESS:        486  HIT:         28  MISS:        458
L2C PREFETCH  ACCESS:      12828  HIT:      10087  MISS:       2741
L2C WRITEBACK ACCESS:        484  HIT:        482  MISS:          2
L2C PREFETCH  REQUESTED:      44699  ISSUED:      44613  USEFUL:       1819  USELESS:        945
L2C AVERAGE MISS LATENCY: 85.9692 cycles
LLC TOTAL     ACCESS:      31198  HIT:      16514  MISS:      14684
LLC LOAD      ACCESS:      10320  HIT:       5809  MISS:       4511
LLC RFO       ACCESS:        458  HIT:         39  MISS:        419
LLC PREFETCH  ACCESS:      19967  HIT:      10213  MISS:       9754
LLC WRITEBACK ACCESS:        453  HIT:        453  MISS:          0
LLC PREFETCH  REQUESTED:          0  ISSUED:          0  USEFUL:       5413  USELESS:        781
LLC AVERAGE MISS LATENCY: 131.757 cycles
Major fault: 0 Minor fault: 672
CPU 0 L1D next line prefetcher final stats

DRAM Statistics
 CHANNEL 0
 RQ ROW_BUFFER_HIT:       7482  ROW_BUFFER_MISS:       7202
 DBUS_CONGESTED:       5376
 WQ ROW_BUFFER_HIT:          5  ROW_BUFFER_MISS:         41  FULL:          0

 AVG_CONGESTED_CYCLE: 6

CPU 0 Branch Prediction Accuracy: 99.695% MPKI: 0.12886 Average ROB Occupancy at Mispredict: 60.5899

Branch types
NOT_BRANCH: 47887571 95.7751%
BRANCH_DIRECT_JUMP: 36263 0.072526%
BRANCH_INDIRECT: 3236 0.006472%
BRANCH_CONDITIONAL: 1791513 3.58303%
BRANCH_DIRECT_CALL: 71355 0.14271%
BRANCH_INDIRECT_CALL: 69258 0.138516%
BRANCH_RETURN: 140613 0.281226%
BRANCH_OTHER: 0 0%

