Initialize SIGNATURE TABLE
ST_SET: 1
ST_WAY: 256
ST_TAG_BIT: 16
ST_TAG_MASK: ffff

Initialize PATTERN TABLE
PT_SET: 512
PT_WAY: 4
SIG_DELTA_BIT: 7
C_SIG_BIT: 4
C_DELTA_BIT: 4

Initialize PREFETCH FILTER
FILTER_SET: 1024

*** ChampSim Multicore Out-of-Order Simulator ***

Warmup Instructions: 50000000
Simulation Instructions: 50000000
Number of CPUs: 1
LLC sets: 2048
LLC ways: 16
Off-chip DRAM Size: 4096 MB Channels: 1 Width: 64-bit Data Rate: 3200 MT/s

CPU 0 runs /home/ykhodke/ChampSim/dpc3_traces/628.pop2_s-17B.champsimtrace.xz
CPU 0 L1D next line prefetcher
Heartbeat CPU 0 instructions: 10000003 cycles: 3395131 heartbeat IPC: 2.9454 cumulative IPC: 2.9454 (Simulation time: 0 hr 0 min 17 sec) 
Heartbeat CPU 0 instructions: 20000001 cycles: 6789574 heartbeat IPC: 2.94599 cumulative IPC: 2.94569 (Simulation time: 0 hr 0 min 33 sec) 
Heartbeat CPU 0 instructions: 30000003 cycles: 10182583 heartbeat IPC: 2.94724 cumulative IPC: 2.94621 (Simulation time: 0 hr 0 min 49 sec) 
Heartbeat CPU 0 instructions: 40000001 cycles: 13573502 heartbeat IPC: 2.94905 cumulative IPC: 2.94692 (Simulation time: 0 hr 1 min 5 sec) 
Heartbeat CPU 0 instructions: 50000002 cycles: 16957262 heartbeat IPC: 2.95529 cumulative IPC: 2.94859 (Simulation time: 0 hr 1 min 21 sec) 

Warmup complete CPU 0 instructions: 50000002 cycles: 16957262 (Simulation time: 0 hr 1 min 21 sec) 

Heartbeat CPU 0 instructions: 60000001 cycles: 23202004 heartbeat IPC: 1.60135 cumulative IPC: 1.60135 (Simulation time: 0 hr 1 min 39 sec) 
Heartbeat CPU 0 instructions: 70000002 cycles: 29388024 heartbeat IPC: 1.61655 cumulative IPC: 1.60891 (Simulation time: 0 hr 1 min 56 sec) 
Heartbeat CPU 0 instructions: 80000000 cycles: 35877880 heartbeat IPC: 1.54087 cumulative IPC: 1.58557 (Simulation time: 0 hr 2 min 12 sec) 
Heartbeat CPU 0 instructions: 90000003 cycles: 43404893 heartbeat IPC: 1.32855 cumulative IPC: 1.51242 (Simulation time: 0 hr 2 min 29 sec) 
Heartbeat CPU 0 instructions: 100000001 cycles: 49932060 heartbeat IPC: 1.53206 cumulative IPC: 1.51631 (Simulation time: 0 hr 2 min 47 sec) 
Finished CPU 0 instructions: 50000003 cycles: 32974799 cumulative IPC: 1.51631 (Simulation time: 0 hr 2 min 47 sec) 

ChampSim completed all CPUs

Region of Interest Statistics

CPU 0 cumulative IPC: 1.51631 instructions: 50000003 cycles: 32974799
L1D TOTAL     ACCESS:   17163687  HIT:   16304701  MISS:     858986
L1D LOAD      ACCESS:    7520396  HIT:    7355039  MISS:     165357
L1D RFO       ACCESS:    2962659  HIT:    2673933  MISS:     288726
L1D PREFETCH  ACCESS:    6680632  HIT:    6275729  MISS:     404903
L1D WRITEBACK ACCESS:          0  HIT:          0  MISS:          0
L1D PREFETCH  REQUESTED:    7627265  ISSUED:    7292341  USEFUL:     362205  USELESS:      42722
L1D AVERAGE MISS LATENCY: 32.7744 cycles
L1I TOTAL     ACCESS:    9223618  HIT:    9193738  MISS:      29880
L1I LOAD      ACCESS:    9098579  HIT:    9094352  MISS:       4227
L1I RFO       ACCESS:          0  HIT:          0  MISS:          0
L1I PREFETCH  ACCESS:     125039  HIT:      99386  MISS:      25653
L1I WRITEBACK ACCESS:          0  HIT:          0  MISS:          0
L1I PREFETCH  REQUESTED:     129156  ISSUED:     129143  USEFUL:      20643  USELESS:       4911
L1I AVERAGE MISS LATENCY: 43.633 cycles
L2C TOTAL     ACCESS:    2132332  HIT:    1811917  MISS:     320415
L2C LOAD      ACCESS:      76137  HIT:      49257  MISS:      26880
L2C RFO       ACCESS:     288659  HIT:     207516  MISS:      81143
L2C PREFETCH  ACCESS:    1386503  HIT:    1174482  MISS:     212021
L2C WRITEBACK ACCESS:     381033  HIT:     380662  MISS:        371
L2C PREFETCH  REQUESTED:    1669664  ISSUED:    1608392  USEFUL:       9582  USELESS:     201238
L2C AVERAGE MISS LATENCY: 77.2514 cycles
LLC TOTAL     ACCESS:     875207  HIT:     703785  MISS:     171422
LLC LOAD      ACCESS:      26812  HIT:      20121  MISS:       6691
LLC RFO       ACCESS:      81143  HIT:      38853  MISS:      42290
LLC PREFETCH  ACCESS:     632732  HIT:     512354  MISS:     120378
LLC WRITEBACK ACCESS:     134520  HIT:     132457  MISS:       2063
LLC PREFETCH  REQUESTED:          0  ISSUED:          0  USEFUL:       6396  USELESS:     125105
LLC AVERAGE MISS LATENCY: 172.885 cycles
Major fault: 0 Minor fault: 5188
CPU 0 L1D next line prefetcher final stats

DRAM Statistics
 CHANNEL 0
 RQ ROW_BUFFER_HIT:      69063  ROW_BUFFER_MISS:     100287
 DBUS_CONGESTED:      92229
 WQ ROW_BUFFER_HIT:      19382  ROW_BUFFER_MISS:      40980  FULL:          0

 AVG_CONGESTED_CYCLE: 6

CPU 0 Branch Prediction Accuracy: 99.1448% MPKI: 1.03648 Average ROB Occupancy at Mispredict: 34.8815

Branch types
NOT_BRANCH: 43939618 87.8792%
BRANCH_DIRECT_JUMP: 214980 0.42996%
BRANCH_INDIRECT: 2007 0.004014%
BRANCH_CONDITIONAL: 5640873 11.2817%
BRANCH_DIRECT_CALL: 101143 0.202286%
BRANCH_INDIRECT_CALL: 0 0%
BRANCH_RETURN: 101145 0.20229%
BRANCH_OTHER: 0 0%

