Initialize SIGNATURE TABLE
ST_SET: 1
ST_WAY: 256
ST_TAG_BIT: 16
ST_TAG_MASK: ffff

Initialize PATTERN TABLE
PT_SET: 512
PT_WAY: 4
SIG_DELTA_BIT: 7
C_SIG_BIT: 4
C_DELTA_BIT: 4

Initialize PREFETCH FILTER
FILTER_SET: 1024

*** ChampSim Multicore Out-of-Order Simulator ***

Warmup Instructions: 50000000
Simulation Instructions: 50000000
Number of CPUs: 1
LLC sets: 2048
LLC ways: 16
Off-chip DRAM Size: 4096 MB Channels: 1 Width: 64-bit Data Rate: 3200 MT/s

CPU 0 runs /home/ykhodke/ChampSim/dpc3_traces/638.imagick_s-10316B.champsimtrace.xz
CPU 0 L1D next line prefetcher
Heartbeat CPU 0 instructions: 10000001 cycles: 2859422 heartbeat IPC: 3.49721 cumulative IPC: 3.49721 (Simulation time: 0 hr 0 min 13 sec) 
Heartbeat CPU 0 instructions: 20000002 cycles: 5718714 heartbeat IPC: 3.49737 cumulative IPC: 3.49729 (Simulation time: 0 hr 0 min 27 sec) 
Heartbeat CPU 0 instructions: 30000000 cycles: 8577977 heartbeat IPC: 3.4974 cumulative IPC: 3.49733 (Simulation time: 0 hr 0 min 40 sec) 
Heartbeat CPU 0 instructions: 40000001 cycles: 11437309 heartbeat IPC: 3.49732 cumulative IPC: 3.49733 (Simulation time: 0 hr 0 min 54 sec) 
Heartbeat CPU 0 instructions: 50000000 cycles: 14296652 heartbeat IPC: 3.49731 cumulative IPC: 3.49732 (Simulation time: 0 hr 1 min 7 sec) 

Warmup complete CPU 0 instructions: 50000004 cycles: 14296653 (Simulation time: 0 hr 1 min 7 sec) 

Heartbeat CPU 0 instructions: 60000003 cycles: 18489896 heartbeat IPC: 2.38479 cumulative IPC: 2.38479 (Simulation time: 0 hr 1 min 18 sec) 
Heartbeat CPU 0 instructions: 70000000 cycles: 22682933 heartbeat IPC: 2.38491 cumulative IPC: 2.38485 (Simulation time: 0 hr 1 min 29 sec) 
Heartbeat CPU 0 instructions: 80000001 cycles: 26876654 heartbeat IPC: 2.38452 cumulative IPC: 2.38474 (Simulation time: 0 hr 1 min 40 sec) 
Heartbeat CPU 0 instructions: 90000002 cycles: 31070166 heartbeat IPC: 2.38464 cumulative IPC: 2.38471 (Simulation time: 0 hr 1 min 52 sec) 
Heartbeat CPU 0 instructions: 100000003 cycles: 35263665 heartbeat IPC: 2.38464 cumulative IPC: 2.3847 (Simulation time: 0 hr 2 min 3 sec) 
Finished CPU 0 instructions: 50000003 cycles: 20967013 cumulative IPC: 2.3847 (Simulation time: 0 hr 2 min 3 sec) 

ChampSim completed all CPUs

Region of Interest Statistics

CPU 0 cumulative IPC: 2.3847 instructions: 50000003 cycles: 20967013
L1D TOTAL     ACCESS:    7509489  HIT:    7048441  MISS:     461048
L1D LOAD      ACCESS:    3830862  HIT:    3592535  MISS:     238327
L1D RFO       ACCESS:       2168  HIT:       1876  MISS:        292
L1D PREFETCH  ACCESS:    3676459  HIT:    3454030  MISS:     222429
L1D WRITEBACK ACCESS:          0  HIT:          0  MISS:          0
L1D PREFETCH  REQUESTED:    4037506  ISSUED:    3978259  USEFUL:     206234  USELESS:      16195
L1D AVERAGE MISS LATENCY: 15.0204 cycles
L1I TOTAL     ACCESS:    7775910  HIT:    7775910  MISS:          0
L1I LOAD      ACCESS:    7775910  HIT:    7775910  MISS:          0
L1I RFO       ACCESS:          0  HIT:          0  MISS:          0
L1I PREFETCH  ACCESS:          0  HIT:          0  MISS:          0
L1I WRITEBACK ACCESS:          0  HIT:          0  MISS:          0
L1I PREFETCH  REQUESTED:          0  ISSUED:          0  USEFUL:          0  USELESS:          0
L1I AVERAGE MISS LATENCY: -nan cycles
L2C TOTAL     ACCESS:    2770807  HIT:    2768851  MISS:       1956
L2C LOAD      ACCESS:     236590  HIT:     236559  MISS:         31
L2C RFO       ACCESS:        291  HIT:        291  MISS:          0
L2C PREFETCH  ACCESS:    2533349  HIT:    2531424  MISS:       1925
L2C WRITEBACK ACCESS:        577  HIT:        577  MISS:          0
L2C PREFETCH  REQUESTED:    2817452  ISSUED:    2800531  USEFUL:       1932  USELESS:         11
L2C AVERAGE MISS LATENCY: 36.8139 cycles
LLC TOTAL     ACCESS:     379835  HIT:     377862  MISS:       1973
LLC LOAD      ACCESS:         31  HIT:          0  MISS:         31
LLC RFO       ACCESS:          0  HIT:          0  MISS:          0
LLC PREFETCH  ACCESS:     379804  HIT:     377862  MISS:       1942
LLC WRITEBACK ACCESS:          0  HIT:          0  MISS:          0
LLC PREFETCH  REQUESTED:          0  ISSUED:          0  USEFUL:          0  USELESS:          0
LLC AVERAGE MISS LATENCY: 163.949 cycles
Major fault: 0 Minor fault: 230
CPU 0 L1D next line prefetcher final stats

DRAM Statistics
 CHANNEL 0
 RQ ROW_BUFFER_HIT:        322  ROW_BUFFER_MISS:       1651
 DBUS_CONGESTED:        431
 WQ ROW_BUFFER_HIT:          0  ROW_BUFFER_MISS:          0  FULL:          0

 AVG_CONGESTED_CYCLE: 6

CPU 0 Branch Prediction Accuracy: 99.6975% MPKI: 0.31308 Average ROB Occupancy at Mispredict: 35.2296

Branch types
NOT_BRANCH: 44824589 89.6492%
BRANCH_DIRECT_JUMP: 281 0.000562%
BRANCH_INDIRECT: 0 0%
BRANCH_CONDITIONAL: 5174823 10.3496%
BRANCH_DIRECT_CALL: 0 0%
BRANCH_INDIRECT_CALL: 0 0%
BRANCH_RETURN: 0 0%
BRANCH_OTHER: 0 0%

