Initialize SIGNATURE TABLE
ST_SET: 1
ST_WAY: 256
ST_TAG_BIT: 16
ST_TAG_MASK: ffff

Initialize PATTERN TABLE
PT_SET: 512
PT_WAY: 4
SIG_DELTA_BIT: 7
C_SIG_BIT: 4
C_DELTA_BIT: 4

Initialize PREFETCH FILTER
FILTER_SET: 1024

*** ChampSim Multicore Out-of-Order Simulator ***

Warmup Instructions: 50000000
Simulation Instructions: 50000000
Number of CPUs: 1
LLC sets: 2048
LLC ways: 16
Off-chip DRAM Size: 4096 MB Channels: 1 Width: 64-bit Data Rate: 3200 MT/s

CPU 0 runs /home/ykhodke/ChampSim/dpc3_traces/648.exchange2_s-1699B.champsimtrace.xz
CPU 0 L1D next line prefetcher
Heartbeat CPU 0 instructions: 10000003 cycles: 3064550 heartbeat IPC: 3.26312 cumulative IPC: 3.26312 (Simulation time: 0 hr 0 min 17 sec) 
Heartbeat CPU 0 instructions: 20000001 cycles: 6128731 heartbeat IPC: 3.26351 cumulative IPC: 3.26332 (Simulation time: 0 hr 0 min 34 sec) 
Heartbeat CPU 0 instructions: 30000000 cycles: 9194902 heartbeat IPC: 3.2614 cumulative IPC: 3.26268 (Simulation time: 0 hr 0 min 51 sec) 
Heartbeat CPU 0 instructions: 40000002 cycles: 12289485 heartbeat IPC: 3.23145 cumulative IPC: 3.25482 (Simulation time: 0 hr 1 min 9 sec) 
Heartbeat CPU 0 instructions: 50000001 cycles: 15357371 heartbeat IPC: 3.25957 cumulative IPC: 3.25577 (Simulation time: 0 hr 1 min 26 sec) 

Warmup complete CPU 0 instructions: 50000001 cycles: 15357371 (Simulation time: 0 hr 1 min 26 sec) 

Heartbeat CPU 0 instructions: 60000003 cycles: 20279563 heartbeat IPC: 2.03162 cumulative IPC: 2.03162 (Simulation time: 0 hr 1 min 42 sec) 
Heartbeat CPU 0 instructions: 70000000 cycles: 25222316 heartbeat IPC: 2.02316 cumulative IPC: 2.02738 (Simulation time: 0 hr 1 min 57 sec) 
Heartbeat CPU 0 instructions: 80000002 cycles: 30113768 heartbeat IPC: 2.04438 cumulative IPC: 2.03302 (Simulation time: 0 hr 2 min 12 sec) 
Heartbeat CPU 0 instructions: 90000002 cycles: 35019122 heartbeat IPC: 2.03859 cumulative IPC: 2.03441 (Simulation time: 0 hr 2 min 28 sec) 
Heartbeat CPU 0 instructions: 100000002 cycles: 39915928 heartbeat IPC: 2.04215 cumulative IPC: 2.03595 (Simulation time: 0 hr 2 min 43 sec) 
Finished CPU 0 instructions: 50000001 cycles: 24558557 cumulative IPC: 2.03595 (Simulation time: 0 hr 2 min 43 sec) 

ChampSim completed all CPUs

Region of Interest Statistics

CPU 0 cumulative IPC: 2.03595 instructions: 50000001 cycles: 24558557
L1D TOTAL     ACCESS:   18826039  HIT:   18826039  MISS:          0
L1D LOAD      ACCESS:    5902472  HIT:    5902472  MISS:          0
L1D RFO       ACCESS:    7255863  HIT:    7255863  MISS:          0
L1D PREFETCH  ACCESS:    5667704  HIT:    5667704  MISS:          0
L1D WRITEBACK ACCESS:          0  HIT:          0  MISS:          0
L1D PREFETCH  REQUESTED:    5902472  ISSUED:    5791593  USEFUL:          0  USELESS:          0
L1D AVERAGE MISS LATENCY: -nan cycles
L1I TOTAL     ACCESS:   11919652  HIT:   11919652  MISS:          0
L1I LOAD      ACCESS:    8436941  HIT:    8436941  MISS:          0
L1I RFO       ACCESS:          0  HIT:          0  MISS:          0
L1I PREFETCH  ACCESS:    3482711  HIT:    3482711  MISS:          0
L1I WRITEBACK ACCESS:          0  HIT:          0  MISS:          0
L1I PREFETCH  REQUESTED:    3482712  ISSUED:    3482712  USEFUL:          0  USELESS:          0
L1I AVERAGE MISS LATENCY: -nan cycles
L2C TOTAL     ACCESS:          0  HIT:          0  MISS:          0
L2C LOAD      ACCESS:          0  HIT:          0  MISS:          0
L2C RFO       ACCESS:          0  HIT:          0  MISS:          0
L2C PREFETCH  ACCESS:          0  HIT:          0  MISS:          0
L2C WRITEBACK ACCESS:          0  HIT:          0  MISS:          0
L2C PREFETCH  REQUESTED:          0  ISSUED:          0  USEFUL:          0  USELESS:          0
L2C AVERAGE MISS LATENCY: -nan cycles
LLC TOTAL     ACCESS:          0  HIT:          0  MISS:          0
LLC LOAD      ACCESS:          0  HIT:          0  MISS:          0
LLC RFO       ACCESS:          0  HIT:          0  MISS:          0
LLC PREFETCH  ACCESS:          0  HIT:          0  MISS:          0
LLC WRITEBACK ACCESS:          0  HIT:          0  MISS:          0
LLC PREFETCH  REQUESTED:          0  ISSUED:          0  USEFUL:          0  USELESS:          0
LLC AVERAGE MISS LATENCY: -nan cycles
Major fault: 0 Minor fault: 46
CPU 0 L1D next line prefetcher final stats

DRAM Statistics
 CHANNEL 0
 RQ ROW_BUFFER_HIT:          0  ROW_BUFFER_MISS:          0
 DBUS_CONGESTED:          0
 WQ ROW_BUFFER_HIT:          0  ROW_BUFFER_MISS:          0  FULL:          0

 AVG_CONGESTED_CYCLE: -

CPU 0 Branch Prediction Accuracy: 99.3653% MPKI: 0.88956 Average ROB Occupancy at Mispredict: 29.8018

Branch types
NOT_BRANCH: 42991649 85.9833%
BRANCH_DIRECT_JUMP: 541426 1.08285%
BRANCH_INDIRECT: 0 0%
BRANCH_CONDITIONAL: 6454790 12.9096%
BRANCH_DIRECT_CALL: 5901 0.011802%
BRANCH_INDIRECT_CALL: 0 0%
BRANCH_RETURN: 5901 0.011802%
BRANCH_OTHER: 0 0%

