Initialize SIGNATURE TABLE
ST_SET: 1
ST_WAY: 256
ST_TAG_BIT: 16
ST_TAG_MASK: ffff

Initialize PATTERN TABLE
PT_SET: 512
PT_WAY: 4
SIG_DELTA_BIT: 7
C_SIG_BIT: 4
C_DELTA_BIT: 4

Initialize PREFETCH FILTER
FILTER_SET: 1024

*** ChampSim Multicore Out-of-Order Simulator ***

Warmup Instructions: 50000000
Simulation Instructions: 50000000
Number of CPUs: 1
LLC sets: 2048
LLC ways: 16
Off-chip DRAM Size: 4096 MB Channels: 1 Width: 64-bit Data Rate: 3200 MT/s

CPU 0 runs /home/ykhodke/ChampSim/dpc3_traces/649.fotonik3d_s-1176B.champsimtrace.xz
CPU 0 L1D next line prefetcher
Heartbeat CPU 0 instructions: 10000000 cycles: 4041204 heartbeat IPC: 2.47451 cumulative IPC: 2.47451 (Simulation time: 0 hr 0 min 17 sec) 
Heartbeat CPU 0 instructions: 20000002 cycles: 8082285 heartbeat IPC: 2.47459 cumulative IPC: 2.47455 (Simulation time: 0 hr 0 min 35 sec) 
Heartbeat CPU 0 instructions: 30000001 cycles: 12123421 heartbeat IPC: 2.47455 cumulative IPC: 2.47455 (Simulation time: 0 hr 0 min 52 sec) 
Heartbeat CPU 0 instructions: 40000003 cycles: 16164578 heartbeat IPC: 2.47454 cumulative IPC: 2.47455 (Simulation time: 0 hr 1 min 10 sec) 
Heartbeat CPU 0 instructions: 50000002 cycles: 20205677 heartbeat IPC: 2.47457 cumulative IPC: 2.47455 (Simulation time: 0 hr 1 min 27 sec) 

Warmup complete CPU 0 instructions: 50000002 cycles: 20205677 (Simulation time: 0 hr 1 min 27 sec) 

Heartbeat CPU 0 instructions: 60000002 cycles: 27843876 heartbeat IPC: 1.30921 cumulative IPC: 1.30921 (Simulation time: 0 hr 1 min 46 sec) 
Heartbeat CPU 0 instructions: 70000000 cycles: 35532937 heartbeat IPC: 1.30055 cumulative IPC: 1.30486 (Simulation time: 0 hr 2 min 5 sec) 
Heartbeat CPU 0 instructions: 80000000 cycles: 43219327 heartbeat IPC: 1.301 cumulative IPC: 1.30357 (Simulation time: 0 hr 2 min 24 sec) 
Heartbeat CPU 0 instructions: 90000002 cycles: 50933243 heartbeat IPC: 1.29636 cumulative IPC: 1.30176 (Simulation time: 0 hr 2 min 43 sec) 
Heartbeat CPU 0 instructions: 100000000 cycles: 58626904 heartbeat IPC: 1.29977 cumulative IPC: 1.30136 (Simulation time: 0 hr 3 min 1 sec) 
Finished CPU 0 instructions: 50000002 cycles: 38421228 cumulative IPC: 1.30136 (Simulation time: 0 hr 3 min 1 sec) 

ChampSim completed all CPUs

Region of Interest Statistics

CPU 0 cumulative IPC: 1.30136 instructions: 50000002 cycles: 38421228
L1D TOTAL     ACCESS:   16292273  HIT:   15628244  MISS:     664029
L1D LOAD      ACCESS:    6840755  HIT:    6534882  MISS:     305873
L1D RFO       ACCESS:    3508729  HIT:    3508075  MISS:        654
L1D PREFETCH  ACCESS:    5942789  HIT:    5585287  MISS:     357502
L1D WRITEBACK ACCESS:          0  HIT:          0  MISS:          0
L1D PREFETCH  REQUESTED:    7158155  ISSUED:    7117057  USEFUL:     355042  USELESS:       2474
L1D AVERAGE MISS LATENCY: 32.71 cycles
L1I TOTAL     ACCESS:    7359001  HIT:    7359001  MISS:          0
L1I LOAD      ACCESS:    7359001  HIT:    7359001  MISS:          0
L1I RFO       ACCESS:          0  HIT:          0  MISS:          0
L1I PREFETCH  ACCESS:          0  HIT:          0  MISS:          0
L1I WRITEBACK ACCESS:          0  HIT:          0  MISS:          0
L1I PREFETCH  REQUESTED:          0  ISSUED:          0  USEFUL:          0  USELESS:          0
L1I AVERAGE MISS LATENCY: -nan cycles
L2C TOTAL     ACCESS:    1525002  HIT:    1082594  MISS:     442408
L2C LOAD      ACCESS:      14292  HIT:       6798  MISS:       7494
L2C RFO       ACCESS:        654  HIT:        654  MISS:          0
L2C PREFETCH  ACCESS:    1070825  HIT:     635911  MISS:     434914
L2C WRITEBACK ACCESS:     439231  HIT:     439231  MISS:          0
L2C PREFETCH  REQUESTED:    1044144  ISSUED:    1043914  USEFUL:        525  USELESS:     434402
L2C AVERAGE MISS LATENCY: 125.192 cycles
LLC TOTAL     ACCESS:    1016994  HIT:     576550  MISS:     440444
LLC LOAD      ACCESS:       7494  HIT:        117  MISS:       7377
LLC RFO       ACCESS:          0  HIT:          0  MISS:          0
LLC PREFETCH  ACCESS:     571238  HIT:     138171  MISS:     433067
LLC WRITEBACK ACCESS:     438262  HIT:     438262  MISS:          0
LLC PREFETCH  REQUESTED:          0  ISSUED:          0  USEFUL:         20  USELESS:     433068
LLC AVERAGE MISS LATENCY: 183.533 cycles
Major fault: 0 Minor fault: 13774
CPU 0 L1D next line prefetcher final stats

DRAM Statistics
 CHANNEL 0
 RQ ROW_BUFFER_HIT:      14231  ROW_BUFFER_MISS:     426213
 DBUS_CONGESTED:     404218
 WQ ROW_BUFFER_HIT:     316203  ROW_BUFFER_MISS:     121750  FULL:          0

 AVG_CONGESTED_CYCLE: 6

CPU 0 Branch Prediction Accuracy: 99.9751% MPKI: 0.00438 Average ROB Occupancy at Mispredict: 309.329

Branch types
NOT_BRANCH: 49121932 98.2439%
BRANCH_DIRECT_JUMP: 218 0.000436%
BRANCH_INDIRECT: 0 0%
BRANCH_CONDITIONAL: 877404 1.75481%
BRANCH_DIRECT_CALL: 218 0.000436%
BRANCH_INDIRECT_CALL: 0 0%
BRANCH_RETURN: 218 0.000436%
BRANCH_OTHER: 0 0%

