Initialize SIGNATURE TABLE
ST_SET: 1
ST_WAY: 256
ST_TAG_BIT: 16
ST_TAG_MASK: ffff

Initialize PATTERN TABLE
PT_SET: 512
PT_WAY: 4
SIG_DELTA_BIT: 7
C_SIG_BIT: 4
C_DELTA_BIT: 4

Initialize PREFETCH FILTER
FILTER_SET: 1024

*** ChampSim Multicore Out-of-Order Simulator ***

Warmup Instructions: 50000000
Simulation Instructions: 50000000
Number of CPUs: 1
LLC sets: 2048
LLC ways: 16
Off-chip DRAM Size: 4096 MB Channels: 1 Width: 64-bit Data Rate: 3200 MT/s

CPU 0 runs /home/ykhodke/ChampSim/dpc3_traces/client_005.champsimtrace.xz
CPU 0 L1D next line prefetcher
Heartbeat CPU 0 instructions: 10000001 cycles: 3293312 heartbeat IPC: 3.03646 cumulative IPC: 3.03646 (Simulation time: 0 hr 0 min 24 sec) 
Heartbeat CPU 0 instructions: 20000002 cycles: 6701949 heartbeat IPC: 2.93372 cumulative IPC: 2.98421 (Simulation time: 0 hr 0 min 49 sec) 
Heartbeat CPU 0 instructions: 30000001 cycles: 10395395 heartbeat IPC: 2.7075 cumulative IPC: 2.88589 (Simulation time: 0 hr 1 min 15 sec) 
Heartbeat CPU 0 instructions: 40000000 cycles: 14073396 heartbeat IPC: 2.71887 cumulative IPC: 2.84224 (Simulation time: 0 hr 1 min 42 sec) 
Heartbeat CPU 0 instructions: 50000001 cycles: 17347376 heartbeat IPC: 3.05439 cumulative IPC: 2.88228 (Simulation time: 0 hr 2 min 5 sec) 

Warmup complete CPU 0 instructions: 50000001 cycles: 17347376 (Simulation time: 0 hr 2 min 5 sec) 

Heartbeat CPU 0 instructions: 60000002 cycles: 25098598 heartbeat IPC: 1.29012 cumulative IPC: 1.29012 (Simulation time: 0 hr 2 min 31 sec) 
Heartbeat CPU 0 instructions: 70000003 cycles: 32433782 heartbeat IPC: 1.36329 cumulative IPC: 1.3257 (Simulation time: 0 hr 2 min 57 sec) 
Heartbeat CPU 0 instructions: 80000001 cycles: 39354756 heartbeat IPC: 1.44488 cumulative IPC: 1.36318 (Simulation time: 0 hr 3 min 25 sec) 
Heartbeat CPU 0 instructions: 90000002 cycles: 48950833 heartbeat IPC: 1.04209 cumulative IPC: 1.26568 (Simulation time: 0 hr 3 min 53 sec) 
Heartbeat CPU 0 instructions: 100000002 cycles: 56670030 heartbeat IPC: 1.29547 cumulative IPC: 1.27153 (Simulation time: 0 hr 4 min 18 sec) 
Finished CPU 0 instructions: 50000001 cycles: 39322654 cumulative IPC: 1.27153 (Simulation time: 0 hr 4 min 18 sec) 

ChampSim completed all CPUs

Region of Interest Statistics

CPU 0 cumulative IPC: 1.27153 instructions: 50000001 cycles: 39322654
L1D TOTAL     ACCESS:   19696806  HIT:   19160921  MISS:     535885
L1D LOAD      ACCESS:    6681284  HIT:    6509370  MISS:     171914
L1D RFO       ACCESS:    6789194  HIT:    6604568  MISS:     184626
L1D PREFETCH  ACCESS:    6226328  HIT:    6046983  MISS:     179345
L1D WRITEBACK ACCESS:          0  HIT:          0  MISS:          0
L1D PREFETCH  REQUESTED:    6705938  ISSUED:    6335678  USEFUL:      59185  USELESS:     120049
L1D AVERAGE MISS LATENCY: 97.0028 cycles
L1I TOTAL     ACCESS:   24403944  HIT:   21404770  MISS:    2999174
L1I LOAD      ACCESS:    9404482  HIT:    9222309  MISS:     182173
L1I RFO       ACCESS:          0  HIT:          0  MISS:          0
L1I PREFETCH  ACCESS:   14999462  HIT:   12182461  MISS:    2817001
L1I WRITEBACK ACCESS:          0  HIT:          0  MISS:          0
L1I PREFETCH  REQUESTED:   15162453  ISSUED:   15155862  USEFUL:    1007413  USELESS:    1809554
L1I AVERAGE MISS LATENCY: 17.3346 cycles
L2C TOTAL     ACCESS:    4719285  HIT:    4278316  MISS:     440969
L2C LOAD      ACCESS:     246949  HIT:     162202  MISS:      84747
L2C RFO       ACCESS:     180867  HIT:      30535  MISS:     150332
L2C PREFETCH  ACCESS:    4038416  HIT:    3834553  MISS:     203863
L2C WRITEBACK ACCESS:     253053  HIT:     251026  MISS:       2027
L2C PREFETCH  REQUESTED:    1831445  ISSUED:    1831198  USEFUL:      16554  USELESS:     184916
L2C AVERAGE MISS LATENCY: 125.866 cycles
LLC TOTAL     ACCESS:    1002274  HIT:     694290  MISS:     307984
LLC LOAD      ACCESS:      84745  HIT:      43757  MISS:      40988
LLC RFO       ACCESS:     150330  HIT:      14986  MISS:     135344
LLC PREFETCH  ACCESS:     565209  HIT:     434412  MISS:     130797
LLC WRITEBACK ACCESS:     201990  HIT:     201135  MISS:        855
LLC PREFETCH  REQUESTED:          0  ISSUED:          0  USEFUL:      20392  USELESS:     104001
LLC AVERAGE MISS LATENCY: 175.484 cycles
Major fault: 0 Minor fault: 6101
CPU 0 L1D next line prefetcher final stats

DRAM Statistics
 CHANNEL 0
 RQ ROW_BUFFER_HIT:      97947  ROW_BUFFER_MISS:     209175
 DBUS_CONGESTED:     238289
 WQ ROW_BUFFER_HIT:      52353  ROW_BUFFER_MISS:     131827  FULL:          0

 AVG_CONGESTED_CYCLE: 6

CPU 0 Branch Prediction Accuracy: 97.8666% MPKI: 3.9013 Average ROB Occupancy at Mispredict: 86.7074

Branch types
NOT_BRANCH: 40856330 81.7127%
BRANCH_DIRECT_JUMP: 484667 0.969334%
BRANCH_INDIRECT: 85086 0.170172%
BRANCH_CONDITIONAL: 6230887 12.4618%
BRANCH_DIRECT_CALL: 1028917 2.05783%
BRANCH_INDIRECT_CALL: 141825 0.28365%
BRANCH_RETURN: 1171986 2.34397%
BRANCH_OTHER: 0 0%

