Initialize SIGNATURE TABLE
ST_SET: 1
ST_WAY: 256
ST_TAG_BIT: 16
ST_TAG_MASK: ffff

Initialize PATTERN TABLE
PT_SET: 512
PT_WAY: 4
SIG_DELTA_BIT: 7
C_SIG_BIT: 4
C_DELTA_BIT: 4

Initialize PREFETCH FILTER
FILTER_SET: 1024

*** ChampSim Multicore Out-of-Order Simulator ***

Warmup Instructions: 50000000
Simulation Instructions: 50000000
Number of CPUs: 1
LLC sets: 2048
LLC ways: 16
Off-chip DRAM Size: 4096 MB Channels: 1 Width: 64-bit Data Rate: 3200 MT/s

CPU 0 runs /home/ykhodke/ChampSim/dpc3_traces/client_008.champsimtrace.xz
CPU 0 L1D next line prefetcher
Heartbeat CPU 0 instructions: 10000001 cycles: 3755398 heartbeat IPC: 2.66283 cumulative IPC: 2.66283 (Simulation time: 0 hr 0 min 26 sec) 
Heartbeat CPU 0 instructions: 20000001 cycles: 7532450 heartbeat IPC: 2.64757 cumulative IPC: 2.65518 (Simulation time: 0 hr 0 min 53 sec) 
Heartbeat CPU 0 instructions: 30000000 cycles: 11260905 heartbeat IPC: 2.68208 cumulative IPC: 2.66408 (Simulation time: 0 hr 1 min 20 sec) 
Heartbeat CPU 0 instructions: 40000002 cycles: 15056089 heartbeat IPC: 2.63492 cumulative IPC: 2.65673 (Simulation time: 0 hr 1 min 46 sec) 
Heartbeat CPU 0 instructions: 50000003 cycles: 18848863 heartbeat IPC: 2.63659 cumulative IPC: 2.65268 (Simulation time: 0 hr 2 min 13 sec) 

Warmup complete CPU 0 instructions: 50000003 cycles: 18848863 (Simulation time: 0 hr 2 min 13 sec) 

Heartbeat CPU 0 instructions: 60000000 cycles: 27038007 heartbeat IPC: 1.22113 cumulative IPC: 1.22113 (Simulation time: 0 hr 2 min 43 sec) 
Heartbeat CPU 0 instructions: 70000000 cycles: 34979772 heartbeat IPC: 1.25917 cumulative IPC: 1.23986 (Simulation time: 0 hr 3 min 15 sec) 
Heartbeat CPU 0 instructions: 80000001 cycles: 44010598 heartbeat IPC: 1.10732 cumulative IPC: 1.19229 (Simulation time: 0 hr 3 min 42 sec) 
Heartbeat CPU 0 instructions: 90000000 cycles: 51390566 heartbeat IPC: 1.35502 cumulative IPC: 1.22919 (Simulation time: 0 hr 4 min 7 sec) 
Heartbeat CPU 0 instructions: 100000001 cycles: 59429641 heartbeat IPC: 1.24392 cumulative IPC: 1.23211 (Simulation time: 0 hr 4 min 32 sec) 
Finished CPU 0 instructions: 50000002 cycles: 40580779 cumulative IPC: 1.23211 (Simulation time: 0 hr 4 min 32 sec) 

ChampSim completed all CPUs

Region of Interest Statistics

CPU 0 cumulative IPC: 1.23211 instructions: 50000002 cycles: 40580779
L1D TOTAL     ACCESS:   20489539  HIT:   18860941  MISS:    1628598
L1D LOAD      ACCESS:    8067292  HIT:    7267432  MISS:     799860
L1D RFO       ACCESS:    4814094  HIT:    4704537  MISS:     109557
L1D PREFETCH  ACCESS:    7608153  HIT:    6888972  MISS:     719181
L1D WRITEBACK ACCESS:          0  HIT:          0  MISS:          0
L1D PREFETCH  REQUESTED:    8137078  ISSUED:    7968940  USEFUL:     199310  USELESS:     519876
L1D AVERAGE MISS LATENCY: 33.3386 cycles
L1I TOTAL     ACCESS:   18088671  HIT:   16059609  MISS:    2029062
L1I LOAD      ACCESS:    9779115  HIT:    9658989  MISS:     120126
L1I RFO       ACCESS:          0  HIT:          0  MISS:          0
L1I PREFETCH  ACCESS:    8309556  HIT:    6400620  MISS:    1908936
L1I WRITEBACK ACCESS:          0  HIT:          0  MISS:          0
L1I PREFETCH  REQUESTED:    8416901  ISSUED:    8415085  USEFUL:     812828  USELESS:    1096141
L1I AVERAGE MISS LATENCY: 16.6979 cycles
L2C TOTAL     ACCESS:    5021130  HIT:    4540638  MISS:     480492
L2C LOAD      ACCESS:     813359  HIT:     646375  MISS:     166984
L2C RFO       ACCESS:     104285  HIT:      18380  MISS:      85905
L2C PREFETCH  ACCESS:    3921500  HIT:    3694419  MISS:     227081
L2C WRITEBACK ACCESS:     181986  HIT:     181464  MISS:        522
L2C PREFETCH  REQUESTED:    3131518  ISSUED:    3122626  USEFUL:      19960  USELESS:     208640
L2C AVERAGE MISS LATENCY: 78.2114 cycles
LLC TOTAL     ACCESS:    1472657  HIT:    1284313  MISS:     188344
LLC LOAD      ACCESS:     166886  HIT:     146683  MISS:      20203
LLC RFO       ACCESS:      85903  HIT:      14748  MISS:      71155
LLC PREFETCH  ACCESS:    1083936  HIT:     987263  MISS:      96673
LLC WRITEBACK ACCESS:     135932  HIT:     135619  MISS:        313
LLC PREFETCH  REQUESTED:          0  ISSUED:          0  USEFUL:      22194  USELESS:      82514
LLC AVERAGE MISS LATENCY: 172.186 cycles
Major fault: 0 Minor fault: 5316
CPU 0 L1D next line prefetcher final stats

DRAM Statistics
 CHANNEL 0
 RQ ROW_BUFFER_HIT:      53876  ROW_BUFFER_MISS:     134138
 DBUS_CONGESTED:     101731
 WQ ROW_BUFFER_HIT:      23405  ROW_BUFFER_MISS:      67004  FULL:          0

 AVG_CONGESTED_CYCLE: 6

CPU 0 Branch Prediction Accuracy: 98.6482% MPKI: 3.1551 Average ROB Occupancy at Mispredict: 96.7262

Branch types
NOT_BRANCH: 38329598 76.6592%
BRANCH_DIRECT_JUMP: 510116 1.02023%
BRANCH_INDIRECT: 225730 0.45146%
BRANCH_CONDITIONAL: 8366762 16.7335%
BRANCH_DIRECT_CALL: 600748 1.2015%
BRANCH_INDIRECT_CALL: 682990 1.36598%
BRANCH_RETURN: 1283974 2.56795%
BRANCH_OTHER: 0 0%

