Initialize SIGNATURE TABLE
ST_SET: 1
ST_WAY: 256
ST_TAG_BIT: 16
ST_TAG_MASK: ffff

Initialize PATTERN TABLE
PT_SET: 512
PT_WAY: 4
SIG_DELTA_BIT: 7
C_SIG_BIT: 4
C_DELTA_BIT: 4

Initialize PREFETCH FILTER
FILTER_SET: 1024

*** ChampSim Multicore Out-of-Order Simulator ***

Warmup Instructions: 50000000
Simulation Instructions: 50000000
Number of CPUs: 1
LLC sets: 2048
LLC ways: 16
Off-chip DRAM Size: 4096 MB Channels: 1 Width: 64-bit Data Rate: 3200 MT/s

CPU 0 runs /home/ykhodke/ChampSim/dpc3_traces/client_007.champsimtrace.xz
CPU 0 L1D next line prefetcher
Heartbeat CPU 0 instructions: 10000001 cycles: 3642748 heartbeat IPC: 2.74518 cumulative IPC: 2.74518 (Simulation time: 0 hr 0 min 23 sec) 
Heartbeat CPU 0 instructions: 20000003 cycles: 7034608 heartbeat IPC: 2.94824 cumulative IPC: 2.84309 (Simulation time: 0 hr 0 min 45 sec) 
Heartbeat CPU 0 instructions: 30000000 cycles: 10906171 heartbeat IPC: 2.58294 cumulative IPC: 2.75074 (Simulation time: 0 hr 1 min 10 sec) 
Heartbeat CPU 0 instructions: 40000003 cycles: 15066141 heartbeat IPC: 2.40386 cumulative IPC: 2.65496 (Simulation time: 0 hr 1 min 34 sec) 
Heartbeat CPU 0 instructions: 50000002 cycles: 18471007 heartbeat IPC: 2.93697 cumulative IPC: 2.70695 (Simulation time: 0 hr 1 min 56 sec) 

Warmup complete CPU 0 instructions: 50000002 cycles: 18471007 (Simulation time: 0 hr 1 min 56 sec) 

Heartbeat CPU 0 instructions: 60000003 cycles: 25355858 heartbeat IPC: 1.45246 cumulative IPC: 1.45246 (Simulation time: 0 hr 2 min 23 sec) 
Heartbeat CPU 0 instructions: 70000003 cycles: 34233650 heartbeat IPC: 1.12641 cumulative IPC: 1.26882 (Simulation time: 0 hr 2 min 51 sec) 
Heartbeat CPU 0 instructions: 80000002 cycles: 39532580 heartbeat IPC: 1.88717 cumulative IPC: 1.4244 (Simulation time: 0 hr 3 min 12 sec) 
Heartbeat CPU 0 instructions: 90000002 cycles: 47140093 heartbeat IPC: 1.31449 cumulative IPC: 1.39523 (Simulation time: 0 hr 3 min 38 sec) 
Heartbeat CPU 0 instructions: 100000002 cycles: 56097136 heartbeat IPC: 1.11644 cumulative IPC: 1.32886 (Simulation time: 0 hr 4 min 2 sec) 
Finished CPU 0 instructions: 50000000 cycles: 37626129 cumulative IPC: 1.32886 (Simulation time: 0 hr 4 min 2 sec) 

ChampSim completed all CPUs

Region of Interest Statistics

CPU 0 cumulative IPC: 1.32886 instructions: 50000000 cycles: 37626129
L1D TOTAL     ACCESS:   21198586  HIT:   20029526  MISS:    1169060
L1D LOAD      ACCESS:    8370784  HIT:    7831072  MISS:     539712
L1D RFO       ACCESS:    4868336  HIT:    4777328  MISS:      91008
L1D PREFETCH  ACCESS:    7959466  HIT:    7421126  MISS:     538340
L1D WRITEBACK ACCESS:          0  HIT:          0  MISS:          0
L1D PREFETCH  REQUESTED:    8423465  ISSUED:    8179472  USEFUL:     157856  USELESS:     380499
L1D AVERAGE MISS LATENCY: 34.8608 cycles
L1I TOTAL     ACCESS:   14197547  HIT:   12761147  MISS:    1436400
L1I LOAD      ACCESS:    9147396  HIT:    9128791  MISS:      18605
L1I RFO       ACCESS:          0  HIT:          0  MISS:          0
L1I PREFETCH  ACCESS:    5050151  HIT:    3632356  MISS:    1417795
L1I WRITEBACK ACCESS:          0  HIT:          0  MISS:          0
L1I PREFETCH  REQUESTED:    5066284  ISSUED:    5066013  USEFUL:     904124  USELESS:     513640
L1I AVERAGE MISS LATENCY: 16.0771 cycles
L2C TOTAL     ACCESS:    3774352  HIT:    3561257  MISS:     213095
L2C LOAD      ACCESS:     519952  HIT:     451251  MISS:      68701
L2C RFO       ACCESS:      89462  HIT:      47703  MISS:      41759
L2C PREFETCH  ACCESS:    2837289  HIT:    2734833  MISS:     102456
L2C WRITEBACK ACCESS:     327649  HIT:     327470  MISS:        179
L2C PREFETCH  REQUESTED:    2477619  ISSUED:    2471803  USEFUL:       9008  USELESS:      93853
L2C AVERAGE MISS LATENCY: 127.704 cycles
LLC TOTAL     ACCESS:     953735  HIT:     781043  MISS:     172692
LLC LOAD      ACCESS:      68618  HIT:      34273  MISS:      34345
LLC RFO       ACCESS:      41759  HIT:       7269  MISS:      34490
LLC PREFETCH  ACCESS:     768417  HIT:     664831  MISS:     103586
LLC WRITEBACK ACCESS:      74941  HIT:      74670  MISS:        271
LLC PREFETCH  REQUESTED:          0  ISSUED:          0  USEFUL:      17819  USELESS:      87437
LLC AVERAGE MISS LATENCY: 187.48 cycles
Major fault: 0 Minor fault: 4434
CPU 0 L1D next line prefetcher final stats

DRAM Statistics
 CHANNEL 0
 RQ ROW_BUFFER_HIT:      36127  ROW_BUFFER_MISS:     136289
 DBUS_CONGESTED:      94847
 WQ ROW_BUFFER_HIT:      12758  ROW_BUFFER_MISS:      45141  FULL:          0

 AVG_CONGESTED_CYCLE: 5

CPU 0 Branch Prediction Accuracy: 98.8607% MPKI: 1.8623 Average ROB Occupancy at Mispredict: 113.705

Branch types
NOT_BRANCH: 41826773 83.6535%
BRANCH_DIRECT_JUMP: 735330 1.47066%
BRANCH_INDIRECT: 269194 0.538388%
BRANCH_CONDITIONAL: 5957947 11.9159%
BRANCH_DIRECT_CALL: 368758 0.737516%
BRANCH_INDIRECT_CALL: 226975 0.45395%
BRANCH_RETURN: 614696 1.22939%
BRANCH_OTHER: 0 0%

