Initialize SIGNATURE TABLE
ST_SET: 1
ST_WAY: 256
ST_TAG_BIT: 16
ST_TAG_MASK: ffff

Initialize PATTERN TABLE
PT_SET: 512
PT_WAY: 4
SIG_DELTA_BIT: 7
C_SIG_BIT: 4
C_DELTA_BIT: 4

Initialize PREFETCH FILTER
FILTER_SET: 1024

*** ChampSim Multicore Out-of-Order Simulator ***

Warmup Instructions: 50000000
Simulation Instructions: 50000000
Number of CPUs: 1
LLC sets: 2048
LLC ways: 16
Off-chip DRAM Size: 4096 MB Channels: 1 Width: 64-bit Data Rate: 3200 MT/s

CPU 0 runs /home/ykhodke/ChampSim/dpc3_traces/server_004.champsimtrace.xz
CPU 0 L1D next line prefetcher
Heartbeat CPU 0 instructions: 10000002 cycles: 3232218 heartbeat IPC: 3.09385 cumulative IPC: 3.09385 (Simulation time: 0 hr 0 min 23 sec) 
Heartbeat CPU 0 instructions: 20000002 cycles: 6569447 heartbeat IPC: 2.9965 cumulative IPC: 3.0444 (Simulation time: 0 hr 0 min 47 sec) 
Heartbeat CPU 0 instructions: 30000000 cycles: 11687676 heartbeat IPC: 1.9538 cumulative IPC: 2.56681 (Simulation time: 0 hr 1 min 19 sec) 
Heartbeat CPU 0 instructions: 40000003 cycles: 15437362 heartbeat IPC: 2.66689 cumulative IPC: 2.59112 (Simulation time: 0 hr 1 min 45 sec) 
Heartbeat CPU 0 instructions: 50000003 cycles: 18666842 heartbeat IPC: 3.09647 cumulative IPC: 2.67855 (Simulation time: 0 hr 2 min 9 sec) 

Warmup complete CPU 0 instructions: 50000003 cycles: 18666842 (Simulation time: 0 hr 2 min 9 sec) 

Heartbeat CPU 0 instructions: 60000002 cycles: 27446646 heartbeat IPC: 1.13898 cumulative IPC: 1.13898 (Simulation time: 0 hr 2 min 36 sec) 
Heartbeat CPU 0 instructions: 70000000 cycles: 35706205 heartbeat IPC: 1.21072 cumulative IPC: 1.17375 (Simulation time: 0 hr 3 min 2 sec) 
Heartbeat CPU 0 instructions: 80000001 cycles: 56658039 heartbeat IPC: 0.477285 cumulative IPC: 0.789657 (Simulation time: 0 hr 3 min 44 sec) 
Heartbeat CPU 0 instructions: 90000003 cycles: 71501122 heartbeat IPC: 0.673715 cumulative IPC: 0.757084 (Simulation time: 0 hr 4 min 16 sec) 
Heartbeat CPU 0 instructions: 100000003 cycles: 80252869 heartbeat IPC: 1.14263 cumulative IPC: 0.811872 (Simulation time: 0 hr 4 min 42 sec) 
Finished CPU 0 instructions: 50000000 cycles: 61586027 cumulative IPC: 0.811872 (Simulation time: 0 hr 4 min 42 sec) 

ChampSim completed all CPUs

Region of Interest Statistics

CPU 0 cumulative IPC: 0.811872 instructions: 50000000 cycles: 61586027
L1D TOTAL     ACCESS:   21674372  HIT:   17603247  MISS:    4071125
L1D LOAD      ACCESS:    8620522  HIT:    6601993  MISS:    2018529
L1D RFO       ACCESS:    4644110  HIT:    4537225  MISS:     106885
L1D PREFETCH  ACCESS:    8409740  HIT:    6464029  MISS:    1945711
L1D WRITEBACK ACCESS:          0  HIT:          0  MISS:          0
L1D PREFETCH  REQUESTED:    8656226  ISSUED:    8566985  USEFUL:     106089  USELESS:    1839614
L1D AVERAGE MISS LATENCY: 23.4732 cycles
L1I TOTAL     ACCESS:   20158690  HIT:   17782007  MISS:    2376683
L1I LOAD      ACCESS:   10735717  HIT:   10568296  MISS:     167421
L1I RFO       ACCESS:          0  HIT:          0  MISS:          0
L1I PREFETCH  ACCESS:    9422973  HIT:    7213711  MISS:    2209262
L1I WRITEBACK ACCESS:          0  HIT:          0  MISS:          0
L1I PREFETCH  REQUESTED:    9569592  ISSUED:    9560552  USEFUL:    1095407  USELESS:    1113743
L1I AVERAGE MISS LATENCY: 29.3713 cycles
L2C TOTAL     ACCESS:    8433361  HIT:    7252896  MISS:    1180465
L2C LOAD      ACCESS:    2069373  HIT:    1819932  MISS:     249441
L2C RFO       ACCESS:     105628  HIT:      55361  MISS:      50267
L2C PREFETCH  ACCESS:    6013315  HIT:    5134993  MISS:     878322
L2C WRITEBACK ACCESS:     245045  HIT:     242610  MISS:       2435
L2C PREFETCH  REQUESTED:    7227032  ISSUED:    7223482  USEFUL:      28324  USELESS:     849365
L2C AVERAGE MISS LATENCY: 60.227 cycles
LLC TOTAL     ACCESS:    2668625  HIT:    2400944  MISS:     267681
LLC LOAD      ACCESS:     249029  HIT:     208860  MISS:      40169
LLC RFO       ACCESS:      50264  HIT:      33967  MISS:      16297
LLC PREFETCH  ACCESS:    2224075  HIT:    2013117  MISS:     210958
LLC WRITEBACK ACCESS:     145257  HIT:     145000  MISS:        257
LLC PREFETCH  REQUESTED:          0  ISSUED:          0  USEFUL:      16805  USELESS:     192146
LLC AVERAGE MISS LATENCY: 182.267 cycles
Major fault: 0 Minor fault: 7629
CPU 0 L1D next line prefetcher final stats

DRAM Statistics
 CHANNEL 0
 RQ ROW_BUFFER_HIT:      55876  ROW_BUFFER_MISS:     211513
 DBUS_CONGESTED:     110159
 WQ ROW_BUFFER_HIT:      11345  ROW_BUFFER_MISS:      45046  FULL:          0

 AVG_CONGESTED_CYCLE: 5

CPU 0 Branch Prediction Accuracy: 98.1603% MPKI: 3.89124 Average ROB Occupancy at Mispredict: 65.5819

Branch types
NOT_BRANCH: 39423766 78.8475%
BRANCH_DIRECT_JUMP: 551642 1.10328%
BRANCH_INDIRECT: 139368 0.278736%
BRANCH_CONDITIONAL: 7920861 15.8417%
BRANCH_DIRECT_CALL: 776072 1.55214%
BRANCH_INDIRECT_CALL: 194644 0.389288%
BRANCH_RETURN: 993311 1.98662%
BRANCH_OTHER: 0 0%

