Initialize SIGNATURE TABLE
ST_SET: 1
ST_WAY: 256
ST_TAG_BIT: 16
ST_TAG_MASK: ffff

Initialize PATTERN TABLE
PT_SET: 512
PT_WAY: 4
SIG_DELTA_BIT: 7
C_SIG_BIT: 4
C_DELTA_BIT: 4

Initialize PREFETCH FILTER
FILTER_SET: 1024

*** ChampSim Multicore Out-of-Order Simulator ***

Warmup Instructions: 50000000
Simulation Instructions: 50000000
Number of CPUs: 1
LLC sets: 2048
LLC ways: 16
Off-chip DRAM Size: 4096 MB Channels: 1 Width: 64-bit Data Rate: 3200 MT/s

CPU 0 runs /home/ykhodke/ChampSim/dpc3_traces/server_001.champsimtrace.xz
CPU 0 L1D next line prefetcher
Heartbeat CPU 0 instructions: 10000002 cycles: 3156811 heartbeat IPC: 3.16775 cumulative IPC: 3.16775 (Simulation time: 0 hr 0 min 22 sec) 
Heartbeat CPU 0 instructions: 20000000 cycles: 6372029 heartbeat IPC: 3.11021 cumulative IPC: 3.13872 (Simulation time: 0 hr 0 min 45 sec) 
Heartbeat CPU 0 instructions: 30000003 cycles: 9559176 heartbeat IPC: 3.1376 cumulative IPC: 3.13835 (Simulation time: 0 hr 1 min 7 sec) 
Heartbeat CPU 0 instructions: 40000002 cycles: 12767545 heartbeat IPC: 3.11685 cumulative IPC: 3.13294 (Simulation time: 0 hr 1 min 30 sec) 
Heartbeat CPU 0 instructions: 50000003 cycles: 15987411 heartbeat IPC: 3.10572 cumulative IPC: 3.12746 (Simulation time: 0 hr 1 min 52 sec) 

Warmup complete CPU 0 instructions: 50000003 cycles: 15987411 (Simulation time: 0 hr 1 min 52 sec) 

Heartbeat CPU 0 instructions: 60000000 cycles: 23072631 heartbeat IPC: 1.41139 cumulative IPC: 1.41139 (Simulation time: 0 hr 2 min 17 sec) 
Heartbeat CPU 0 instructions: 70000001 cycles: 29961223 heartbeat IPC: 1.45168 cumulative IPC: 1.43125 (Simulation time: 0 hr 2 min 43 sec) 
Heartbeat CPU 0 instructions: 80000002 cycles: 36875954 heartbeat IPC: 1.44619 cumulative IPC: 1.43619 (Simulation time: 0 hr 3 min 8 sec) 
Heartbeat CPU 0 instructions: 90000002 cycles: 44062289 heartbeat IPC: 1.39153 cumulative IPC: 1.42476 (Simulation time: 0 hr 3 min 33 sec) 
Heartbeat CPU 0 instructions: 100000003 cycles: 50827719 heartbeat IPC: 1.4781 cumulative IPC: 1.43512 (Simulation time: 0 hr 3 min 59 sec) 
Finished CPU 0 instructions: 50000000 cycles: 34840308 cumulative IPC: 1.43512 (Simulation time: 0 hr 3 min 59 sec) 

ChampSim completed all CPUs

Region of Interest Statistics

CPU 0 cumulative IPC: 1.43512 instructions: 50000000 cycles: 34840308
L1D TOTAL     ACCESS:   17601901  HIT:   17090805  MISS:     511096
L1D LOAD      ACCESS:    6436976  HIT:    6231267  MISS:     205709
L1D RFO       ACCESS:    5054132  HIT:    4971509  MISS:      82623
L1D PREFETCH  ACCESS:    6110793  HIT:    5888029  MISS:     222764
L1D WRITEBACK ACCESS:          0  HIT:          0  MISS:          0
L1D PREFETCH  REQUESTED:    6466776  ISSUED:    6289446  USEFUL:     131062  USELESS:      91830
L1D AVERAGE MISS LATENCY: 97.1785 cycles
L1I TOTAL     ACCESS:   17350027  HIT:   15932197  MISS:    1417830
L1I LOAD      ACCESS:    8275407  HIT:    8234859  MISS:      40548
L1I RFO       ACCESS:          0  HIT:          0  MISS:          0
L1I PREFETCH  ACCESS:    9074620  HIT:    7697338  MISS:    1377282
L1I WRITEBACK ACCESS:          0  HIT:          0  MISS:          0
L1I PREFETCH  REQUESTED:    9111341  ISSUED:    9107377  USEFUL:     790635  USELESS:     586620
L1I AVERAGE MISS LATENCY: 24.9099 cycles
L2C TOTAL     ACCESS:    2890956  HIT:    2396243  MISS:     494713
L2C LOAD      ACCESS:     182683  HIT:      86458  MISS:      96225
L2C RFO       ACCESS:      80904  HIT:      10182  MISS:      70722
L2C PREFETCH  ACCESS:    2419509  HIT:    2092432  MISS:     327077
L2C WRITEBACK ACCESS:     207860  HIT:     207171  MISS:        689
L2C PREFETCH  REQUESTED:    2357879  ISSUED:    2354032  USEFUL:      19072  USELESS:     307896
L2C AVERAGE MISS LATENCY: 123.349 cycles
LLC TOTAL     ACCESS:    1316826  HIT:     981139  MISS:     335687
LLC LOAD      ACCESS:      96131  HIT:      64860  MISS:      31271
LLC RFO       ACCESS:      70721  HIT:       6949  MISS:      63772
LLC PREFETCH  ACCESS:     981395  HIT:     740928  MISS:     240467
LLC WRITEBACK ACCESS:     168579  HIT:     168402  MISS:        177
LLC PREFETCH  REQUESTED:          0  ISSUED:          0  USEFUL:      26755  USELESS:     209172
LLC AVERAGE MISS LATENCY: 238.112 cycles
Major fault: 0 Minor fault: 16732
CPU 0 L1D next line prefetcher final stats

DRAM Statistics
 CHANNEL 0
 RQ ROW_BUFFER_HIT:      97849  ROW_BUFFER_MISS:     237623
 DBUS_CONGESTED:     225547
 WQ ROW_BUFFER_HIT:      35790  ROW_BUFFER_MISS:     123749  FULL:          0

 AVG_CONGESTED_CYCLE: 6

CPU 0 Branch Prediction Accuracy: 99.5889% MPKI: 0.70108 Average ROB Occupancy at Mispredict: 116.299

Branch types
NOT_BRANCH: 41473577 82.9472%
BRANCH_DIRECT_JUMP: 347941 0.695882%
BRANCH_INDIRECT: 148212 0.296424%
BRANCH_CONDITIONAL: 6817276 13.6346%
BRANCH_DIRECT_CALL: 570724 1.14145%
BRANCH_INDIRECT_CALL: 25133 0.050266%
BRANCH_RETURN: 617123 1.23425%
BRANCH_OTHER: 0 0%

