Initialize SIGNATURE TABLE
ST_SET: 1
ST_WAY: 256
ST_TAG_BIT: 16
ST_TAG_MASK: ffff

Initialize PATTERN TABLE
PT_SET: 512
PT_WAY: 4
SIG_DELTA_BIT: 7
C_SIG_BIT: 4
C_DELTA_BIT: 4

Initialize PREFETCH FILTER
FILTER_SET: 1024

*** ChampSim Multicore Out-of-Order Simulator ***

Warmup Instructions: 50000000
Simulation Instructions: 50000000
Number of CPUs: 1
LLC sets: 2048
LLC ways: 16
Off-chip DRAM Size: 4096 MB Channels: 1 Width: 64-bit Data Rate: 3200 MT/s

CPU 0 runs /home/ykhodke/ChampSim/dpc3_traces/server_021.champsimtrace.xz
CPU 0 L1D next line prefetcher
Heartbeat CPU 0 instructions: 10000000 cycles: 3623909 heartbeat IPC: 2.75945 cumulative IPC: 2.75945 (Simulation time: 0 hr 0 min 24 sec) 
Heartbeat CPU 0 instructions: 20000000 cycles: 7241985 heartbeat IPC: 2.7639 cumulative IPC: 2.76167 (Simulation time: 0 hr 0 min 49 sec) 
Heartbeat CPU 0 instructions: 30000003 cycles: 10890928 heartbeat IPC: 2.74052 cumulative IPC: 2.75459 (Simulation time: 0 hr 1 min 14 sec) 
Heartbeat CPU 0 instructions: 40000001 cycles: 14504446 heartbeat IPC: 2.76739 cumulative IPC: 2.75778 (Simulation time: 0 hr 1 min 39 sec) 
Heartbeat CPU 0 instructions: 50000002 cycles: 18140477 heartbeat IPC: 2.75025 cumulative IPC: 2.75627 (Simulation time: 0 hr 2 min 4 sec) 

Warmup complete CPU 0 instructions: 50000002 cycles: 18140477 (Simulation time: 0 hr 2 min 4 sec) 

Heartbeat CPU 0 instructions: 60000001 cycles: 35546589 heartbeat IPC: 0.574511 cumulative IPC: 0.574511 (Simulation time: 0 hr 2 min 39 sec) 
Heartbeat CPU 0 instructions: 70000002 cycles: 53259251 heartbeat IPC: 0.564568 cumulative IPC: 0.569496 (Simulation time: 0 hr 3 min 14 sec) 
Heartbeat CPU 0 instructions: 80000001 cycles: 70723967 heartbeat IPC: 0.572583 cumulative IPC: 0.570521 (Simulation time: 0 hr 3 min 49 sec) 
Heartbeat CPU 0 instructions: 90000001 cycles: 88478433 heartbeat IPC: 0.563239 cumulative IPC: 0.568683 (Simulation time: 0 hr 4 min 24 sec) 
Heartbeat CPU 0 instructions: 100000002 cycles: 105988352 heartbeat IPC: 0.571105 cumulative IPC: 0.569166 (Simulation time: 0 hr 4 min 59 sec) 
Finished CPU 0 instructions: 50000000 cycles: 87847875 cumulative IPC: 0.569166 (Simulation time: 0 hr 4 min 59 sec) 

ChampSim completed all CPUs

Region of Interest Statistics

CPU 0 cumulative IPC: 0.569166 instructions: 50000000 cycles: 87847875
L1D TOTAL     ACCESS:   18717915  HIT:   16514510  MISS:    2203405
L1D LOAD      ACCESS:    7057078  HIT:    6338277  MISS:     718801
L1D RFO       ACCESS:    5915479  HIT:    4939714  MISS:     975765
L1D PREFETCH  ACCESS:    5745358  HIT:    5236519  MISS:     508839
L1D WRITEBACK ACCESS:          0  HIT:          0  MISS:          0
L1D PREFETCH  REQUESTED:    7100507  ISSUED:    6894449  USEFUL:     187578  USELESS:     321256
L1D AVERAGE MISS LATENCY: 181.106 cycles
L1I TOTAL     ACCESS:   19905506  HIT:   16104096  MISS:    3801410
L1I LOAD      ACCESS:   10175755  HIT:   10164227  MISS:      11528
L1I RFO       ACCESS:          0  HIT:          0  MISS:          0
L1I PREFETCH  ACCESS:    9729751  HIT:    5939869  MISS:    3789882
L1I WRITEBACK ACCESS:          0  HIT:          0  MISS:          0
L1I PREFETCH  REQUESTED:    9743806  ISSUED:    9740830  USEFUL:    2739704  USELESS:    1050120
L1I AVERAGE MISS LATENCY: 16.5886 cycles
L2C TOTAL     ACCESS:    8675175  HIT:    6810296  MISS:    1864879
L2C LOAD      ACCESS:     479274  HIT:     231149  MISS:     248125
L2C RFO       ACCESS:     974980  HIT:      19216  MISS:     955764
L2C PREFETCH  ACCESS:    6041039  HIT:    5382840  MISS:     658199
L2C WRITEBACK ACCESS:    1179882  HIT:    1177091  MISS:       2791
L2C PREFETCH  REQUESTED:    4290201  ISSUED:    4287535  USEFUL:      19331  USELESS:     638751
L2C AVERAGE MISS LATENCY: 221.862 cycles
LLC TOTAL     ACCESS:    4083581  HIT:    2678058  MISS:    1405523
LLC LOAD      ACCESS:     248107  HIT:     169367  MISS:      78740
LLC RFO       ACCESS:     955760  HIT:     143855  MISS:     811905
LLC PREFETCH  ACCESS:    1764173  HIT:    1251290  MISS:     512883
LLC WRITEBACK ACCESS:    1115541  HIT:    1113546  MISS:       1995
LLC PREFETCH  REQUESTED:          0  ISSUED:          0  USEFUL:      24983  USELESS:     486016
LLC AVERAGE MISS LATENCY: 290.324 cycles
Major fault: 0 Minor fault: 22298
CPU 0 L1D next line prefetcher final stats

DRAM Statistics
 CHANNEL 0
 RQ ROW_BUFFER_HIT:     391447  ROW_BUFFER_MISS:    1011767
 DBUS_CONGESTED:    1409269
 WQ ROW_BUFFER_HIT:     287177  ROW_BUFFER_MISS:     611995  FULL:          0

 AVG_CONGESTED_CYCLE: 6

CPU 0 Branch Prediction Accuracy: 99.8303% MPKI: 0.27836 Average ROB Occupancy at Mispredict: 228.393

Branch types
NOT_BRANCH: 41798549 83.5971%
BRANCH_DIRECT_JUMP: 445215 0.89043%
BRANCH_INDIRECT: 50481 0.100962%
BRANCH_CONDITIONAL: 5868246 11.7365%
BRANCH_DIRECT_CALL: 758228 1.51646%
BRANCH_INDIRECT_CALL: 160494 0.320988%
BRANCH_RETURN: 918718 1.83744%
BRANCH_OTHER: 0 0%

