Initialize SIGNATURE TABLE
ST_SET: 1
ST_WAY: 256
ST_TAG_BIT: 16
ST_TAG_MASK: ffff

Initialize PATTERN TABLE
PT_SET: 512
PT_WAY: 4
SIG_DELTA_BIT: 7
C_SIG_BIT: 4
C_DELTA_BIT: 4

Initialize PREFETCH FILTER
FILTER_SET: 1024

*** ChampSim Multicore Out-of-Order Simulator ***

Warmup Instructions: 50000000
Simulation Instructions: 50000000
Number of CPUs: 1
LLC sets: 2048
LLC ways: 16
Off-chip DRAM Size: 4096 MB Channels: 1 Width: 64-bit Data Rate: 3200 MT/s

CPU 0 runs /home/ykhodke/ChampSim/dpc3_traces/server_027.champsimtrace.xz
CPU 0 L1D next line prefetcher
Heartbeat CPU 0 instructions: 10000001 cycles: 3540001 heartbeat IPC: 2.82486 cumulative IPC: 2.82486 (Simulation time: 0 hr 0 min 26 sec) 
Heartbeat CPU 0 instructions: 20000001 cycles: 7084426 heartbeat IPC: 2.82133 cumulative IPC: 2.82309 (Simulation time: 0 hr 0 min 53 sec) 
Heartbeat CPU 0 instructions: 30000002 cycles: 10624436 heartbeat IPC: 2.82485 cumulative IPC: 2.82368 (Simulation time: 0 hr 1 min 20 sec) 
Heartbeat CPU 0 instructions: 40000000 cycles: 14168474 heartbeat IPC: 2.82164 cumulative IPC: 2.82317 (Simulation time: 0 hr 1 min 47 sec) 
Heartbeat CPU 0 instructions: 50000001 cycles: 17706313 heartbeat IPC: 2.82658 cumulative IPC: 2.82385 (Simulation time: 0 hr 2 min 14 sec) 

Warmup complete CPU 0 instructions: 50000001 cycles: 17706313 (Simulation time: 0 hr 2 min 14 sec) 

Heartbeat CPU 0 instructions: 60000002 cycles: 24677102 heartbeat IPC: 1.43456 cumulative IPC: 1.43456 (Simulation time: 0 hr 2 min 45 sec) 
Heartbeat CPU 0 instructions: 70000003 cycles: 31610771 heartbeat IPC: 1.44224 cumulative IPC: 1.43839 (Simulation time: 0 hr 3 min 15 sec) 
Heartbeat CPU 0 instructions: 80000002 cycles: 38552427 heartbeat IPC: 1.44058 cumulative IPC: 1.43912 (Simulation time: 0 hr 3 min 46 sec) 
Heartbeat CPU 0 instructions: 90000001 cycles: 45579857 heartbeat IPC: 1.423 cumulative IPC: 1.43505 (Simulation time: 0 hr 4 min 18 sec) 
Heartbeat CPU 0 instructions: 100000002 cycles: 52490215 heartbeat IPC: 1.4471 cumulative IPC: 1.43745 (Simulation time: 0 hr 4 min 49 sec) 
Finished CPU 0 instructions: 50000001 cycles: 34783902 cumulative IPC: 1.43745 (Simulation time: 0 hr 4 min 49 sec) 

ChampSim completed all CPUs

Region of Interest Statistics

CPU 0 cumulative IPC: 1.43745 instructions: 50000001 cycles: 34783902
L1D TOTAL     ACCESS:   19951381  HIT:   18349750  MISS:    1601631
L1D LOAD      ACCESS:    6971621  HIT:    6278534  MISS:     693087
L1D RFO       ACCESS:    6296385  HIT:    6010969  MISS:     285416
L1D PREFETCH  ACCESS:    6683375  HIT:    6060247  MISS:     623128
L1D WRITEBACK ACCESS:          0  HIT:          0  MISS:          0
L1D PREFETCH  REQUESTED:    7016293  ISSUED:    6889652  USEFUL:     148393  USELESS:     474747
L1D AVERAGE MISS LATENCY: 24.9466 cycles
L1I TOTAL     ACCESS:   24267928  HIT:   18168086  MISS:    6099842
L1I LOAD      ACCESS:    9562875  HIT:    9446018  MISS:     116857
L1I RFO       ACCESS:          0  HIT:          0  MISS:          0
L1I PREFETCH  ACCESS:   14705053  HIT:    8722068  MISS:    5982985
L1I WRITEBACK ACCESS:          0  HIT:          0  MISS:          0
L1I PREFETCH  REQUESTED:   14828291  ISSUED:   14800948  USEFUL:    2894358  USELESS:    3088564
L1I AVERAGE MISS LATENCY: 16.7608 cycles
L2C TOTAL     ACCESS:   10446487  HIT:    9551070  MISS:     895417
L2C LOAD      ACCESS:     713761  HIT:     550127  MISS:     163634
L2C RFO       ACCESS:     283663  HIT:     186063  MISS:      97600
L2C PREFETCH  ACCESS:    8889823  HIT:    8261459  MISS:     628364
L2C WRITEBACK ACCESS:     559240  HIT:     553421  MISS:       5819
L2C PREFETCH  REQUESTED:    5269525  ISSUED:    5259218  USEFUL:      18003  USELESS:     609503
L2C AVERAGE MISS LATENCY: 36.4724 cycles
LLC TOTAL     ACCESS:    2418925  HIT:    2387186  MISS:      31739
LLC LOAD      ACCESS:     163501  HIT:     160306  MISS:       3195
LLC RFO       ACCESS:      97599  HIT:      83670  MISS:      13929
LLC PREFETCH  ACCESS:    1988498  HIT:    1974000  MISS:      14498
LLC WRITEBACK ACCESS:     169327  HIT:     169210  MISS:        117
LLC PREFETCH  REQUESTED:          0  ISSUED:          0  USEFUL:       1087  USELESS:      13046
LLC AVERAGE MISS LATENCY: 189.771 cycles
Major fault: 0 Minor fault: 2497
CPU 0 L1D next line prefetcher final stats

DRAM Statistics
 CHANNEL 0
 RQ ROW_BUFFER_HIT:      10593  ROW_BUFFER_MISS:      21029
 DBUS_CONGESTED:      22302
 WQ ROW_BUFFER_HIT:       1532  ROW_BUFFER_MISS:      14541  FULL:          0

 AVG_CONGESTED_CYCLE: 6

CPU 0 Branch Prediction Accuracy: 99.8082% MPKI: 0.35064 Average ROB Occupancy at Mispredict: 189.35

Branch types
NOT_BRANCH: 40857505 81.715%
BRANCH_DIRECT_JUMP: 526635 1.05327%
BRANCH_INDIRECT: 205902 0.411804%
BRANCH_CONDITIONAL: 6184049 12.3681%
BRANCH_DIRECT_CALL: 938467 1.87693%
BRANCH_INDIRECT_CALL: 174486 0.348972%
BRANCH_RETURN: 1112959 2.22592%
BRANCH_OTHER: 0 0%

