Initialize SIGNATURE TABLE
ST_SET: 1
ST_WAY: 256
ST_TAG_BIT: 16
ST_TAG_MASK: ffff

Initialize PATTERN TABLE
PT_SET: 512
PT_WAY: 4
SIG_DELTA_BIT: 7
C_SIG_BIT: 4
C_DELTA_BIT: 4

Initialize PREFETCH FILTER
FILTER_SET: 1024

*** ChampSim Multicore Out-of-Order Simulator ***

Warmup Instructions: 50000000
Simulation Instructions: 50000000
Number of CPUs: 1
LLC sets: 2048
LLC ways: 16
Off-chip DRAM Size: 4096 MB Channels: 1 Width: 64-bit Data Rate: 3200 MT/s

CPU 0 runs /home/ykhodke/ChampSim/dpc3_traces/server_024.champsimtrace.xz
CPU 0 L1D next line prefetcher
Heartbeat CPU 0 instructions: 10000000 cycles: 3512326 heartbeat IPC: 2.84712 cumulative IPC: 2.84712 (Simulation time: 0 hr 0 min 26 sec) 
Heartbeat CPU 0 instructions: 20000002 cycles: 7015460 heartbeat IPC: 2.85459 cumulative IPC: 2.85085 (Simulation time: 0 hr 0 min 53 sec) 
Heartbeat CPU 0 instructions: 30000000 cycles: 10530367 heartbeat IPC: 2.84502 cumulative IPC: 2.8489 (Simulation time: 0 hr 1 min 19 sec) 
Heartbeat CPU 0 instructions: 40000000 cycles: 14042237 heartbeat IPC: 2.84749 cumulative IPC: 2.84855 (Simulation time: 0 hr 1 min 46 sec) 
Heartbeat CPU 0 instructions: 50000001 cycles: 17542427 heartbeat IPC: 2.85699 cumulative IPC: 2.85023 (Simulation time: 0 hr 2 min 12 sec) 

Warmup complete CPU 0 instructions: 50000001 cycles: 17542427 (Simulation time: 0 hr 2 min 12 sec) 

Heartbeat CPU 0 instructions: 60000003 cycles: 24377983 heartbeat IPC: 1.46294 cumulative IPC: 1.46294 (Simulation time: 0 hr 2 min 42 sec) 
Heartbeat CPU 0 instructions: 70000000 cycles: 31252506 heartbeat IPC: 1.45465 cumulative IPC: 1.45878 (Simulation time: 0 hr 3 min 13 sec) 
*** Reached end of trace for Core: 0 Repeating trace: /home/ykhodke/ChampSim/dpc3_traces/server_024.champsimtrace.xz
Heartbeat CPU 0 instructions: 80000003 cycles: 38104898 heartbeat IPC: 1.45934 cumulative IPC: 1.45897 (Simulation time: 0 hr 3 min 43 sec) 
Heartbeat CPU 0 instructions: 90000003 cycles: 45025241 heartbeat IPC: 1.44502 cumulative IPC: 1.45546 (Simulation time: 0 hr 4 min 14 sec) 
Heartbeat CPU 0 instructions: 100000002 cycles: 51905140 heartbeat IPC: 1.45351 cumulative IPC: 1.45507 (Simulation time: 0 hr 4 min 44 sec) 
Finished CPU 0 instructions: 50000001 cycles: 34362713 cumulative IPC: 1.45507 (Simulation time: 0 hr 4 min 44 sec) 

ChampSim completed all CPUs

Region of Interest Statistics

CPU 0 cumulative IPC: 1.45507 instructions: 50000001 cycles: 34362713
L1D TOTAL     ACCESS:   19709110  HIT:   18191729  MISS:    1517381
L1D LOAD      ACCESS:    6946909  HIT:    6265274  MISS:     681635
L1D RFO       ACCESS:    6146858  HIT:    5873011  MISS:     273847
L1D PREFETCH  ACCESS:    6615343  HIT:    6053444  MISS:     561899
L1D WRITEBACK ACCESS:          0  HIT:          0  MISS:          0
L1D PREFETCH  REQUESTED:    7003028  ISSUED:    6881488  USEFUL:     134696  USELESS:     427208
L1D AVERAGE MISS LATENCY: 26.9057 cycles
L1I TOTAL     ACCESS:   23715404  HIT:   18038163  MISS:    5677241
L1I LOAD      ACCESS:    9411508  HIT:    9288919  MISS:     122589
L1I RFO       ACCESS:          0  HIT:          0  MISS:          0
L1I PREFETCH  ACCESS:   14303896  HIT:    8749244  MISS:    5554652
L1I WRITEBACK ACCESS:          0  HIT:          0  MISS:          0
L1I PREFETCH  REQUESTED:   14431026  ISSUED:   14403498  USEFUL:    2625439  USELESS:    2929193
L1I AVERAGE MISS LATENCY: 16.7167 cycles
L2C TOTAL     ACCESS:    9747834  HIT:    8892535  MISS:     855299
L2C LOAD      ACCESS:     679061  HIT:     515929  MISS:     163132
L2C RFO       ACCESS:     271902  HIT:     173217  MISS:      98685
L2C PREFETCH  ACCESS:    8276791  HIT:    7691805  MISS:     584986
L2C WRITEBACK ACCESS:     520080  HIT:     511584  MISS:       8496
L2C PREFETCH  REQUESTED:    4985204  ISSUED:    4977469  USEFUL:      18643  USELESS:     565372
L2C AVERAGE MISS LATENCY: 40.6629 cycles
LLC TOTAL     ACCESS:    2301018  HIT:    2250782  MISS:      50236
LLC LOAD      ACCESS:     162875  HIT:     157725  MISS:       5150
LLC RFO       ACCESS:      98664  HIT:      76439  MISS:      22225
LLC PREFETCH  ACCESS:    1877197  HIT:    1854543  MISS:      22654
LLC WRITEBACK ACCESS:     162282  HIT:     162075  MISS:        207
LLC PREFETCH  REQUESTED:          0  ISSUED:          0  USEFUL:       1818  USELESS:      20543
LLC AVERAGE MISS LATENCY: 204.797 cycles
Major fault: 0 Minor fault: 2382
CPU 0 L1D next line prefetcher final stats

DRAM Statistics
 CHANNEL 0
 RQ ROW_BUFFER_HIT:      17005  ROW_BUFFER_MISS:      33012
 DBUS_CONGESTED:      36781
 WQ ROW_BUFFER_HIT:       2559  ROW_BUFFER_MISS:      23188  FULL:          0

 AVG_CONGESTED_CYCLE: 6

CPU 0 Branch Prediction Accuracy: 99.7477% MPKI: 0.46156 Average ROB Occupancy at Mispredict: 171.896

Branch types
NOT_BRANCH: 40853715 81.7074%
BRANCH_DIRECT_JUMP: 566821 1.13364%
BRANCH_INDIRECT: 197171 0.394342%
BRANCH_CONDITIONAL: 6308431 12.6169%
BRANCH_DIRECT_CALL: 876400 1.7528%
BRANCH_INDIRECT_CALL: 160491 0.320982%
BRANCH_RETURN: 1036885 2.07377%
BRANCH_OTHER: 0 0%

