Initialize SIGNATURE TABLE
ST_SET: 1
ST_WAY: 256
ST_TAG_BIT: 16
ST_TAG_MASK: ffff

Initialize PATTERN TABLE
PT_SET: 512
PT_WAY: 4
SIG_DELTA_BIT: 7
C_SIG_BIT: 4
C_DELTA_BIT: 4

Initialize PREFETCH FILTER
FILTER_SET: 1024

*** ChampSim Multicore Out-of-Order Simulator ***

Warmup Instructions: 50000000
Simulation Instructions: 50000000
Number of CPUs: 1
LLC sets: 2048
LLC ways: 16
Off-chip DRAM Size: 4096 MB Channels: 1 Width: 64-bit Data Rate: 3200 MT/s

CPU 0 runs /home/ykhodke/ChampSim/dpc3_traces/server_015.champsimtrace.xz
CPU 0 L1D next line prefetcher
Heartbeat CPU 0 instructions: 10000002 cycles: 3519660 heartbeat IPC: 2.84118 cumulative IPC: 2.84118 (Simulation time: 0 hr 0 min 24 sec) 
Heartbeat CPU 0 instructions: 20000001 cycles: 7108156 heartbeat IPC: 2.78668 cumulative IPC: 2.81367 (Simulation time: 0 hr 0 min 49 sec) 
Heartbeat CPU 0 instructions: 30000001 cycles: 10647169 heartbeat IPC: 2.82565 cumulative IPC: 2.81765 (Simulation time: 0 hr 1 min 13 sec) 
Heartbeat CPU 0 instructions: 40000002 cycles: 14195210 heartbeat IPC: 2.81846 cumulative IPC: 2.81785 (Simulation time: 0 hr 1 min 38 sec) 
Heartbeat CPU 0 instructions: 50000002 cycles: 17743470 heartbeat IPC: 2.81828 cumulative IPC: 2.81794 (Simulation time: 0 hr 2 min 3 sec) 

Warmup complete CPU 0 instructions: 50000002 cycles: 17743470 (Simulation time: 0 hr 2 min 3 sec) 

Heartbeat CPU 0 instructions: 60000002 cycles: 24038170 heartbeat IPC: 1.58864 cumulative IPC: 1.58864 (Simulation time: 0 hr 2 min 32 sec) 
Heartbeat CPU 0 instructions: 70000003 cycles: 30346430 heartbeat IPC: 1.58522 cumulative IPC: 1.58693 (Simulation time: 0 hr 3 min 0 sec) 
Heartbeat CPU 0 instructions: 80000000 cycles: 36654637 heartbeat IPC: 1.58524 cumulative IPC: 1.58636 (Simulation time: 0 hr 3 min 29 sec) 
Heartbeat CPU 0 instructions: 90000000 cycles: 42965333 heartbeat IPC: 1.58461 cumulative IPC: 1.58593 (Simulation time: 0 hr 3 min 58 sec) 
Heartbeat CPU 0 instructions: 100000002 cycles: 49273530 heartbeat IPC: 1.58524 cumulative IPC: 1.58579 (Simulation time: 0 hr 4 min 27 sec) 
Finished CPU 0 instructions: 50000000 cycles: 31530060 cumulative IPC: 1.58579 (Simulation time: 0 hr 4 min 27 sec) 

ChampSim completed all CPUs

Region of Interest Statistics

CPU 0 cumulative IPC: 1.58579 instructions: 50000000 cycles: 31530060
L1D TOTAL     ACCESS:   21817352  HIT:   21800586  MISS:      16766
L1D LOAD      ACCESS:    6685570  HIT:    6685040  MISS:        530
L1D RFO       ACCESS:    8561402  HIT:    8561307  MISS:         95
L1D PREFETCH  ACCESS:    6570380  HIT:    6554239  MISS:      16141
L1D WRITEBACK ACCESS:          0  HIT:          0  MISS:          0
L1D PREFETCH  REQUESTED:    6685633  ISSUED:    6574793  USEFUL:         83  USELESS:      16055
L1D AVERAGE MISS LATENCY: 16.2637 cycles
L1I TOTAL     ACCESS:   24054401  HIT:   18125009  MISS:    5929392
L1I LOAD      ACCESS:    9874368  HIT:    9874158  MISS:        210
L1I RFO       ACCESS:          0  HIT:          0  MISS:          0
L1I PREFETCH  ACCESS:   14180033  HIT:    8250851  MISS:    5929182
L1I WRITEBACK ACCESS:          0  HIT:          0  MISS:          0
L1I PREFETCH  REQUESTED:   14180207  ISSUED:   14180193  USEFUL:    3263960  USELESS:    2665157
L1I AVERAGE MISS LATENCY: 14.2173 cycles
L2C TOTAL     ACCESS:    7638101  HIT:    7637728  MISS:        373
L2C LOAD      ACCESS:        623  HIT:        551  MISS:         72
L2C RFO       ACCESS:         94  HIT:         90  MISS:          4
L2C PREFETCH  ACCESS:    7637036  HIT:    7636742  MISS:        294
L2C WRITEBACK ACCESS:        348  HIT:        345  MISS:          3
L2C PREFETCH  REQUESTED:    3730883  ISSUED:    3730841  USEFUL:         70  USELESS:        192
L2C AVERAGE MISS LATENCY: 72.7051 cycles
LLC TOTAL     ACCESS:     867566  HIT:     866351  MISS:       1215
LLC LOAD      ACCESS:         72  HIT:         56  MISS:         16
LLC RFO       ACCESS:          4  HIT:          2  MISS:          2
LLC PREFETCH  ACCESS:     867390  HIT:     866194  MISS:       1196
LLC WRITEBACK ACCESS:        100  HIT:         99  MISS:          1
LLC PREFETCH  REQUESTED:          0  ISSUED:          0  USEFUL:          8  USELESS:        302
LLC AVERAGE MISS LATENCY: 185.854 cycles
Major fault: 0 Minor fault: 1904
CPU 0 L1D next line prefetcher final stats

DRAM Statistics
 CHANNEL 0
 RQ ROW_BUFFER_HIT:         80  ROW_BUFFER_MISS:       1134
 DBUS_CONGESTED:        265
 WQ ROW_BUFFER_HIT:         74  ROW_BUFFER_MISS:        763  FULL:          0

 AVG_CONGESTED_CYCLE: 6

CPU 0 Branch Prediction Accuracy: 99.9085% MPKI: 0.15428 Average ROB Occupancy at Mispredict: 294.729

Branch types
NOT_BRANCH: 41573147 83.1463%
BRANCH_DIRECT_JUMP: 436254 0.872508%
BRANCH_INDIRECT: 0 0%
BRANCH_CONDITIONAL: 5395897 10.7918%
BRANCH_DIRECT_CALL: 1173391 2.34678%
BRANCH_INDIRECT_CALL: 123912 0.247824%
BRANCH_RETURN: 1297311 2.59462%
BRANCH_OTHER: 0 0%

