Initialize SIGNATURE TABLE
ST_SET: 1
ST_WAY: 256
ST_TAG_BIT: 16
ST_TAG_MASK: ffff

Initialize PATTERN TABLE
PT_SET: 512
PT_WAY: 4
SIG_DELTA_BIT: 7
C_SIG_BIT: 4
C_DELTA_BIT: 4

Initialize PREFETCH FILTER
FILTER_SET: 1024

*** ChampSim Multicore Out-of-Order Simulator ***

Warmup Instructions: 50000000
Simulation Instructions: 50000000
Number of CPUs: 1
LLC sets: 2048
LLC ways: 16
Off-chip DRAM Size: 4096 MB Channels: 1 Width: 64-bit Data Rate: 3200 MT/s

CPU 0 runs /home/ykhodke/ChampSim/dpc3_traces/server_025.champsimtrace.xz
CPU 0 L1D next line prefetcher
Heartbeat CPU 0 instructions: 10000003 cycles: 3540345 heartbeat IPC: 2.82458 cumulative IPC: 2.82458 (Simulation time: 0 hr 0 min 27 sec) 
Heartbeat CPU 0 instructions: 20000000 cycles: 7087441 heartbeat IPC: 2.81921 cumulative IPC: 2.82189 (Simulation time: 0 hr 0 min 54 sec) 
Heartbeat CPU 0 instructions: 30000001 cycles: 10626226 heartbeat IPC: 2.82583 cumulative IPC: 2.8232 (Simulation time: 0 hr 1 min 21 sec) 
Heartbeat CPU 0 instructions: 40000003 cycles: 14170479 heartbeat IPC: 2.82147 cumulative IPC: 2.82277 (Simulation time: 0 hr 1 min 48 sec) 
Heartbeat CPU 0 instructions: 50000001 cycles: 17712054 heartbeat IPC: 2.8236 cumulative IPC: 2.82294 (Simulation time: 0 hr 2 min 16 sec) 

Warmup complete CPU 0 instructions: 50000001 cycles: 17712054 (Simulation time: 0 hr 2 min 16 sec) 

Heartbeat CPU 0 instructions: 60000002 cycles: 24619751 heartbeat IPC: 1.44766 cumulative IPC: 1.44766 (Simulation time: 0 hr 2 min 47 sec) 
Heartbeat CPU 0 instructions: 70000000 cycles: 31638606 heartbeat IPC: 1.42473 cumulative IPC: 1.43611 (Simulation time: 0 hr 3 min 18 sec) 
Heartbeat CPU 0 instructions: 80000002 cycles: 38572026 heartbeat IPC: 1.44229 cumulative IPC: 1.43816 (Simulation time: 0 hr 3 min 49 sec) 
Heartbeat CPU 0 instructions: 90000001 cycles: 45143425 heartbeat IPC: 1.52175 cumulative IPC: 1.45818 (Simulation time: 0 hr 4 min 20 sec) 
Heartbeat CPU 0 instructions: 100000003 cycles: 51414427 heartbeat IPC: 1.59464 cumulative IPC: 1.48358 (Simulation time: 0 hr 4 min 50 sec) 
Finished CPU 0 instructions: 50000002 cycles: 33702373 cumulative IPC: 1.48358 (Simulation time: 0 hr 4 min 50 sec) 

ChampSim completed all CPUs

Region of Interest Statistics

CPU 0 cumulative IPC: 1.48358 instructions: 50000002 cycles: 33702373
L1D TOTAL     ACCESS:   20009308  HIT:   18584022  MISS:    1425286
L1D LOAD      ACCESS:    6972933  HIT:    6352555  MISS:     620378
L1D RFO       ACCESS:    6379709  HIT:    6131583  MISS:     248126
L1D PREFETCH  ACCESS:    6656666  HIT:    6099884  MISS:     556782
L1D WRITEBACK ACCESS:          0  HIT:          0  MISS:          0
L1D PREFETCH  REQUESTED:    7014263  ISSUED:    6839456  USEFUL:     129618  USELESS:     427157
L1D AVERAGE MISS LATENCY: 24.4198 cycles
L1I TOTAL     ACCESS:   24825876  HIT:   19436524  MISS:    5389352
L1I LOAD      ACCESS:    9584983  HIT:    9491340  MISS:      93643
L1I RFO       ACCESS:          0  HIT:          0  MISS:          0
L1I PREFETCH  ACCESS:   15240893  HIT:    9945184  MISS:    5295709
L1I WRITEBACK ACCESS:          0  HIT:          0  MISS:          0
L1I PREFETCH  REQUESTED:   15342372  ISSUED:   15317543  USEFUL:    2563682  USELESS:    2731973
L1I AVERAGE MISS LATENCY: 16.6501 cycles
L2C TOTAL     ACCESS:    9221059  HIT:    8461995  MISS:     759064
L2C LOAD      ACCESS:     635194  HIT:     498790  MISS:     136404
L2C RFO       ACCESS:     246660  HIT:     167335  MISS:      79325
L2C PREFETCH  ACCESS:    7842437  HIT:    7306878  MISS:     535559
L2C WRITEBACK ACCESS:     496768  HIT:     488992  MISS:       7776
L2C PREFETCH  REQUESTED:    4512263  ISSUED:    4503271  USEFUL:      13934  USELESS:     520803
L2C AVERAGE MISS LATENCY: 36.1111 cycles
LLC TOTAL     ACCESS:    2062602  HIT:    2034538  MISS:      28064
LLC LOAD      ACCESS:     136258  HIT:     133329  MISS:       2929
LLC RFO       ACCESS:      79260  HIT:      68403  MISS:      10857
LLC PREFETCH  ACCESS:    1702284  HIT:    1688133  MISS:      14151
LLC WRITEBACK ACCESS:     144800  HIT:     144673  MISS:        127
LLC PREFETCH  REQUESTED:          0  ISSUED:          0  USEFUL:        886  USELESS:      12389
LLC AVERAGE MISS LATENCY: 183.841 cycles
Major fault: 0 Minor fault: 2476
CPU 0 L1D next line prefetcher final stats

DRAM Statistics
 CHANNEL 0
 RQ ROW_BUFFER_HIT:       8992  ROW_BUFFER_MISS:      18942
 DBUS_CONGESTED:      18121
 WQ ROW_BUFFER_HIT:       1301  ROW_BUFFER_MISS:      11724  FULL:          0

 AVG_CONGESTED_CYCLE: 6

CPU 0 Branch Prediction Accuracy: 99.8142% MPKI: 0.34676 Average ROB Occupancy at Mispredict: 201.022

Branch types
NOT_BRANCH: 40668883 81.3378%
BRANCH_DIRECT_JUMP: 531700 1.0634%
BRANCH_INDIRECT: 199025 0.39805%
BRANCH_CONDITIONAL: 6211491 12.423%
BRANCH_DIRECT_CALL: 1010910 2.02182%
BRANCH_INDIRECT_CALL: 183501 0.367002%
BRANCH_RETURN: 1194415 2.38883%
BRANCH_OTHER: 0 0%

