Initialize SIGNATURE TABLE
ST_SET: 1
ST_WAY: 256
ST_TAG_BIT: 16
ST_TAG_MASK: ffff

Initialize PATTERN TABLE
PT_SET: 512
PT_WAY: 4
SIG_DELTA_BIT: 7
C_SIG_BIT: 4
C_DELTA_BIT: 4

Initialize PREFETCH FILTER
FILTER_SET: 1024

*** ChampSim Multicore Out-of-Order Simulator ***

Warmup Instructions: 50000000
Simulation Instructions: 50000000
Number of CPUs: 1
LLC sets: 2048
LLC ways: 16
Off-chip DRAM Size: 4096 MB Channels: 1 Width: 64-bit Data Rate: 3200 MT/s

CPU 0 runs /home/ykhodke/ChampSim/dpc3_traces/server_036.champsimtrace.xz
CPU 0 L1D next line prefetcher
Heartbeat CPU 0 instructions: 10000000 cycles: 3459129 heartbeat IPC: 2.8909 cumulative IPC: 2.8909 (Simulation time: 0 hr 0 min 24 sec) 
Heartbeat CPU 0 instructions: 20000000 cycles: 6924917 heartbeat IPC: 2.88535 cumulative IPC: 2.88812 (Simulation time: 0 hr 0 min 48 sec) 
Heartbeat CPU 0 instructions: 30000003 cycles: 10433736 heartbeat IPC: 2.84996 cumulative IPC: 2.87529 (Simulation time: 0 hr 1 min 12 sec) 
Heartbeat CPU 0 instructions: 40000000 cycles: 13896242 heartbeat IPC: 2.88808 cumulative IPC: 2.87848 (Simulation time: 0 hr 1 min 38 sec) 
Heartbeat CPU 0 instructions: 50000002 cycles: 17357944 heartbeat IPC: 2.88875 cumulative IPC: 2.88053 (Simulation time: 0 hr 2 min 3 sec) 

Warmup complete CPU 0 instructions: 50000002 cycles: 17357944 (Simulation time: 0 hr 2 min 3 sec) 

Heartbeat CPU 0 instructions: 60000000 cycles: 22953820 heartbeat IPC: 1.78703 cumulative IPC: 1.78703 (Simulation time: 0 hr 2 min 30 sec) 
Heartbeat CPU 0 instructions: 70000001 cycles: 28512687 heartbeat IPC: 1.79893 cumulative IPC: 1.79296 (Simulation time: 0 hr 11 min 41 sec) 
Heartbeat CPU 0 instructions: 80000001 cycles: 34101393 heartbeat IPC: 1.78932 cumulative IPC: 1.79175 (Simulation time: 0 hr 12 min 8 sec) 
Heartbeat CPU 0 instructions: 90000002 cycles: 39663587 heartbeat IPC: 1.79785 cumulative IPC: 1.79327 (Simulation time: 0 hr 12 min 35 sec) 
Heartbeat CPU 0 instructions: 100000001 cycles: 45220807 heartbeat IPC: 1.79946 cumulative IPC: 1.7945 (Simulation time: 0 hr 13 min 3 sec) 
Finished CPU 0 instructions: 50000003 cycles: 27862864 cumulative IPC: 1.7945 (Simulation time: 0 hr 13 min 3 sec) 

ChampSim completed all CPUs

Region of Interest Statistics

CPU 0 cumulative IPC: 1.7945 instructions: 50000003 cycles: 27862864
L1D TOTAL     ACCESS:   20555133  HIT:   20494908  MISS:      60225
L1D LOAD      ACCESS:    6703662  HIT:    6668821  MISS:      34841
L1D RFO       ACCESS:    7345016  HIT:    7337792  MISS:       7224
L1D PREFETCH  ACCESS:    6506455  HIT:    6488295  MISS:      18160
L1D WRITEBACK ACCESS:          0  HIT:          0  MISS:          0
L1D PREFETCH  REQUESTED:    6704635  ISSUED:    6537468  USEFUL:       5465  USELESS:      12696
L1D AVERAGE MISS LATENCY: 18.7878 cycles
L1I TOTAL     ACCESS:   20333265  HIT:   14276415  MISS:    6056850
L1I LOAD      ACCESS:    9053189  HIT:    9052855  MISS:        334
L1I RFO       ACCESS:          0  HIT:          0  MISS:          0
L1I PREFETCH  ACCESS:   11280076  HIT:    5223560  MISS:    6056516
L1I WRITEBACK ACCESS:          0  HIT:          0  MISS:          0
L1I PREFETCH  REQUESTED:   11280366  ISSUED:   11280346  USEFUL:    4118083  USELESS:    1938357
L1I AVERAGE MISS LATENCY: 14.4351 cycles
L2C TOTAL     ACCESS:    8409759  HIT:    8407130  MISS:       2629
L2C LOAD      ACCESS:      34904  HIT:      34553  MISS:        351
L2C RFO       ACCESS:       7217  HIT:       7161  MISS:         56
L2C PREFETCH  ACCESS:    8352002  HIT:    8349826  MISS:       2176
L2C WRITEBACK ACCESS:      15636  HIT:      15590  MISS:         46
L2C PREFETCH  REQUESTED:    5535646  ISSUED:    5533917  USEFUL:        131  USELESS:       1340
L2C AVERAGE MISS LATENCY: 154.177 cycles
LLC TOTAL     ACCESS:    1217706  HIT:    1214239  MISS:       3467
LLC LOAD      ACCESS:        351  HIT:        137  MISS:        214
LLC RFO       ACCESS:         56  HIT:         26  MISS:         30
LLC PREFETCH  ACCESS:    1216165  HIT:    1212953  MISS:       3212
LLC WRITEBACK ACCESS:       1134  HIT:       1123  MISS:         11
LLC PREFETCH  REQUESTED:          0  ISSUED:          0  USEFUL:         52  USELESS:       1211
LLC AVERAGE MISS LATENCY: 253.805 cycles
Major fault: 0 Minor fault: 1943
CPU 0 L1D next line prefetcher final stats

DRAM Statistics
 CHANNEL 0
 RQ ROW_BUFFER_HIT:        578  ROW_BUFFER_MISS:       2878
 DBUS_CONGESTED:       1432
 WQ ROW_BUFFER_HIT:        260  ROW_BUFFER_MISS:       1779  FULL:          0

 AVG_CONGESTED_CYCLE: 6

CPU 0 Branch Prediction Accuracy: 99.8717% MPKI: 0.21174 Average ROB Occupancy at Mispredict: 224.415

Branch types
NOT_BRANCH: 41748438 83.4969%
BRANCH_DIRECT_JUMP: 468564 0.937128%
BRANCH_INDIRECT: 0 0%
BRANCH_CONDITIONAL: 5599754 11.1995%
BRANCH_DIRECT_CALL: 885105 1.77021%
BRANCH_INDIRECT_CALL: 206338 0.412676%
BRANCH_RETURN: 1091468 2.18294%
BRANCH_OTHER: 0 0%

