Initialize SIGNATURE TABLE
ST_SET: 1
ST_WAY: 256
ST_TAG_BIT: 16
ST_TAG_MASK: ffff

Initialize PATTERN TABLE
PT_SET: 512
PT_WAY: 4
SIG_DELTA_BIT: 7
C_SIG_BIT: 4
C_DELTA_BIT: 4

Initialize PREFETCH FILTER
FILTER_SET: 1024

*** ChampSim Multicore Out-of-Order Simulator ***

Warmup Instructions: 50000000
Simulation Instructions: 50000000
Number of CPUs: 1
LLC sets: 2048
LLC ways: 16
Off-chip DRAM Size: 4096 MB Channels: 1 Width: 64-bit Data Rate: 3200 MT/s

CPU 0 runs /home/ykhodke/ChampSim/dpc3_traces/server_022.champsimtrace.xz
CPU 0 L1D next line prefetcher
Heartbeat CPU 0 instructions: 10000002 cycles: 3624564 heartbeat IPC: 2.75895 cumulative IPC: 2.75895 (Simulation time: 0 hr 0 min 24 sec) 
Heartbeat CPU 0 instructions: 20000001 cycles: 7255411 heartbeat IPC: 2.75418 cumulative IPC: 2.75656 (Simulation time: 0 hr 0 min 49 sec) 
Heartbeat CPU 0 instructions: 30000003 cycles: 10879860 heartbeat IPC: 2.75904 cumulative IPC: 2.75739 (Simulation time: 0 hr 1 min 15 sec) 
Heartbeat CPU 0 instructions: 40000003 cycles: 14511926 heartbeat IPC: 2.75325 cumulative IPC: 2.75635 (Simulation time: 0 hr 1 min 40 sec) 
Heartbeat CPU 0 instructions: 50000002 cycles: 18134129 heartbeat IPC: 2.76075 cumulative IPC: 2.75723 (Simulation time: 0 hr 2 min 6 sec) 

Warmup complete CPU 0 instructions: 50000002 cycles: 18134129 (Simulation time: 0 hr 2 min 6 sec) 

Heartbeat CPU 0 instructions: 60000000 cycles: 35615618 heartbeat IPC: 0.572034 cumulative IPC: 0.572034 (Simulation time: 0 hr 2 min 40 sec) 
Heartbeat CPU 0 instructions: 70000001 cycles: 53289758 heartbeat IPC: 0.565798 cumulative IPC: 0.568899 (Simulation time: 0 hr 3 min 15 sec) 
Heartbeat CPU 0 instructions: 80000001 cycles: 70713230 heartbeat IPC: 0.573938 cumulative IPC: 0.570569 (Simulation time: 0 hr 3 min 50 sec) 
Heartbeat CPU 0 instructions: 90000003 cycles: 88448657 heartbeat IPC: 0.563843 cumulative IPC: 0.568873 (Simulation time: 0 hr 4 min 24 sec) 
Heartbeat CPU 0 instructions: 100000003 cycles: 105893161 heartbeat IPC: 0.573246 cumulative IPC: 0.569742 (Simulation time: 0 hr 4 min 58 sec) 
Finished CPU 0 instructions: 50000001 cycles: 87759032 cumulative IPC: 0.569742 (Simulation time: 0 hr 4 min 58 sec) 

ChampSim completed all CPUs

Region of Interest Statistics

CPU 0 cumulative IPC: 0.569742 instructions: 50000001 cycles: 87759032
L1D TOTAL     ACCESS:   18711621  HIT:   16500899  MISS:    2210722
L1D LOAD      ACCESS:    7050925  HIT:    6330130  MISS:     720795
L1D RFO       ACCESS:    5924918  HIT:    4945259  MISS:     979659
L1D PREFETCH  ACCESS:    5735778  HIT:    5225510  MISS:     510268
L1D WRITEBACK ACCESS:          0  HIT:          0  MISS:          0
L1D PREFETCH  REQUESTED:    7093322  ISSUED:    6885754  USEFUL:     189116  USELESS:     321157
L1D AVERAGE MISS LATENCY: 181.863 cycles
L1I TOTAL     ACCESS:   20219494  HIT:   16403380  MISS:    3816114
L1I LOAD      ACCESS:   10186680  HIT:   10173787  MISS:      12893
L1I RFO       ACCESS:          0  HIT:          0  MISS:          0
L1I PREFETCH  ACCESS:   10032814  HIT:    6229593  MISS:    3803221
L1I WRITEBACK ACCESS:          0  HIT:          0  MISS:          0
L1I PREFETCH  REQUESTED:   10048505  ISSUED:   10045018  USEFUL:    2755482  USELESS:    1047699
L1I AVERAGE MISS LATENCY: 16.7595 cycles
L2C TOTAL     ACCESS:    8719566  HIT:    6848646  MISS:    1870920
L2C LOAD      ACCESS:     481122  HIT:     233819  MISS:     247303
L2C RFO       ACCESS:     978953  HIT:      20956  MISS:     957997
L2C PREFETCH  ACCESS:    6074354  HIT:    5412156  MISS:     662198
L2C WRITEBACK ACCESS:    1185137  HIT:    1181715  MISS:       3422
L2C PREFETCH  REQUESTED:    4334936  ISSUED:    4331820  USEFUL:      18843  USELESS:     643438
L2C AVERAGE MISS LATENCY: 223.504 cycles
LLC TOTAL     ACCESS:    4116446  HIT:    2704741  MISS:    1411705
LLC LOAD      ACCESS:     247292  HIT:     172234  MISS:      75058
LLC RFO       ACCESS:     957996  HIT:     138350  MISS:     819646
LLC PREFETCH  ACCESS:    1792270  HIT:    1277330  MISS:     514940
LLC WRITEBACK ACCESS:    1118888  HIT:    1116827  MISS:       2061
LLC PREFETCH  REQUESTED:          0  ISSUED:          0  USEFUL:      25562  USELESS:     489868
LLC AVERAGE MISS LATENCY: 292.685 cycles
Major fault: 0 Minor fault: 23515
CPU 0 L1D next line prefetcher final stats

DRAM Statistics
 CHANNEL 0
 RQ ROW_BUFFER_HIT:     390881  ROW_BUFFER_MISS:    1018469
 DBUS_CONGESTED:    1420962
 WQ ROW_BUFFER_HIT:     286216  ROW_BUFFER_MISS:     616993  FULL:          0

 AVG_CONGESTED_CYCLE: 6

CPU 0 Branch Prediction Accuracy: 99.8317% MPKI: 0.27564 Average ROB Occupancy at Mispredict: 223.54

Branch types
NOT_BRANCH: 41811169 83.6223%
BRANCH_DIRECT_JUMP: 445742 0.891484%
BRANCH_INDIRECT: 48876 0.097752%
BRANCH_CONDITIONAL: 5859410 11.7188%
BRANCH_DIRECT_CALL: 758268 1.51654%
BRANCH_INDIRECT_CALL: 159103 0.318206%
BRANCH_RETURN: 917372 1.83474%
BRANCH_OTHER: 0 0%

