Initialize SIGNATURE TABLE
ST_SET: 1
ST_WAY: 256
ST_TAG_BIT: 16
ST_TAG_MASK: ffff

Initialize PATTERN TABLE
PT_SET: 512
PT_WAY: 4
SIG_DELTA_BIT: 7
C_SIG_BIT: 4
C_DELTA_BIT: 4

Initialize PREFETCH FILTER
FILTER_SET: 1024

*** ChampSim Multicore Out-of-Order Simulator ***

Warmup Instructions: 50000000
Simulation Instructions: 50000000
Number of CPUs: 1
LLC sets: 2048
LLC ways: 16
Off-chip DRAM Size: 4096 MB Channels: 1 Width: 64-bit Data Rate: 3200 MT/s

CPU 0 runs /home/ykhodke/ChampSim/dpc3_traces/server_037.champsimtrace.xz
CPU 0 L1D next line prefetcher
Heartbeat CPU 0 instructions: 10000001 cycles: 3319433 heartbeat IPC: 3.01256 cumulative IPC: 3.01256 (Simulation time: 0 hr 0 min 24 sec) 
Heartbeat CPU 0 instructions: 20000002 cycles: 6636244 heartbeat IPC: 3.01494 cumulative IPC: 3.01375 (Simulation time: 0 hr 0 min 49 sec) 
Heartbeat CPU 0 instructions: 30000003 cycles: 10000813 heartbeat IPC: 2.97215 cumulative IPC: 2.99976 (Simulation time: 0 hr 1 min 14 sec) 
Heartbeat CPU 0 instructions: 40000000 cycles: 13319230 heartbeat IPC: 3.01348 cumulative IPC: 3.00318 (Simulation time: 0 hr 1 min 39 sec) 
Heartbeat CPU 0 instructions: 50000003 cycles: 16637227 heartbeat IPC: 3.01387 cumulative IPC: 3.00531 (Simulation time: 0 hr 2 min 4 sec) 

Warmup complete CPU 0 instructions: 50000003 cycles: 16637227 (Simulation time: 0 hr 2 min 4 sec) 

Heartbeat CPU 0 instructions: 60000001 cycles: 23052268 heartbeat IPC: 1.55884 cumulative IPC: 1.55884 (Simulation time: 0 hr 2 min 33 sec) 
Heartbeat CPU 0 instructions: 70000000 cycles: 29547883 heartbeat IPC: 1.5395 cumulative IPC: 1.54911 (Simulation time: 0 hr 3 min 6 sec) 
Heartbeat CPU 0 instructions: 80000000 cycles: 35961106 heartbeat IPC: 1.55928 cumulative IPC: 1.55248 (Simulation time: 0 hr 3 min 36 sec) 
Heartbeat CPU 0 instructions: 90000002 cycles: 42399141 heartbeat IPC: 1.55327 cumulative IPC: 1.55268 (Simulation time: 0 hr 4 min 7 sec) 
*** Reached end of trace for Core: 0 Repeating trace: /home/ykhodke/ChampSim/dpc3_traces/server_037.champsimtrace.xz
Heartbeat CPU 0 instructions: 100000000 cycles: 48824076 heartbeat IPC: 1.55644 cumulative IPC: 1.55343 (Simulation time: 0 hr 4 min 38 sec) 
Finished CPU 0 instructions: 50000001 cycles: 32186850 cumulative IPC: 1.55343 (Simulation time: 0 hr 4 min 38 sec) 

ChampSim completed all CPUs

Region of Interest Statistics

CPU 0 cumulative IPC: 1.55343 instructions: 50000001 cycles: 32186850
L1D TOTAL     ACCESS:   18684145  HIT:   17706251  MISS:     977894
L1D LOAD      ACCESS:    6357477  HIT:    5865998  MISS:     491479
L1D RFO       ACCESS:    6204835  HIT:    6140739  MISS:      64096
L1D PREFETCH  ACCESS:    6121833  HIT:    5699514  MISS:     422319
L1D WRITEBACK ACCESS:          0  HIT:          0  MISS:          0
L1D PREFETCH  REQUESTED:    6396052  ISSUED:    6242969  USEFUL:     117263  USELESS:     305060
L1D AVERAGE MISS LATENCY: 30.1096 cycles
L1I TOTAL     ACCESS:   22012464  HIT:   15962530  MISS:    6049934
L1I LOAD      ACCESS:    9521507  HIT:    9519369  MISS:       2138
L1I RFO       ACCESS:          0  HIT:          0  MISS:          0
L1I PREFETCH  ACCESS:   12490957  HIT:    6443161  MISS:    6047796
L1I WRITEBACK ACCESS:          0  HIT:          0  MISS:          0
L1I PREFETCH  REQUESTED:   12493229  ISSUED:   12492566  USEFUL:    4173149  USELESS:    1874629
L1I AVERAGE MISS LATENCY: 14.5774 cycles
L2C TOTAL     ACCESS:   10309223  HIT:    9970103  MISS:     339120
L2C LOAD      ACCESS:     487667  HIT:     335650  MISS:     152017
L2C RFO       ACCESS:      63808  HIT:      35144  MISS:      28664
L2C PREFETCH  ACCESS:    9468165  HIT:    9311190  MISS:     156975
L2C WRITEBACK ACCESS:     289583  HIT:     288119  MISS:       1464
L2C PREFETCH  REQUESTED:    6228352  ISSUED:    6223031  USEFUL:       5799  USELESS:     150949
L2C AVERAGE MISS LATENCY: 45.0511 cycles
LLC TOTAL     ACCESS:    1417305  HIT:    1366973  MISS:      50332
LLC LOAD      ACCESS:     152009  HIT:     138834  MISS:      13175
LLC RFO       ACCESS:      28659  HIT:      23706  MISS:       4953
LLC PREFETCH  ACCESS:    1083965  HIT:    1052171  MISS:      31794
LLC WRITEBACK ACCESS:     152672  HIT:     152262  MISS:        410
LLC PREFETCH  REQUESTED:          0  ISSUED:          0  USEFUL:       2449  USELESS:      29021
LLC AVERAGE MISS LATENCY: 166.428 cycles
Major fault: 0 Minor fault: 5662
CPU 0 L1D next line prefetcher final stats

DRAM Statistics
 CHANNEL 0
 RQ ROW_BUFFER_HIT:       7745  ROW_BUFFER_MISS:      42177
 DBUS_CONGESTED:      18463
 WQ ROW_BUFFER_HIT:       1103  ROW_BUFFER_MISS:      10329  FULL:          0

 AVG_CONGESTED_CYCLE: 4

CPU 0 Branch Prediction Accuracy: 99.913% MPKI: 0.15656 Average ROB Occupancy at Mispredict: 229.001

Branch types
NOT_BRANCH: 41001720 82.0034%
BRANCH_DIRECT_JUMP: 541941 1.08388%
BRANCH_INDIRECT: 59716 0.119432%
BRANCH_CONDITIONAL: 5916852 11.8337%
BRANCH_DIRECT_CALL: 1005465 2.01093%
BRANCH_INDIRECT_CALL: 234433 0.468866%
BRANCH_RETURN: 1239877 2.47975%
BRANCH_OTHER: 0 0%

