Initialize SIGNATURE TABLE
ST_SET: 1
ST_WAY: 256
ST_TAG_BIT: 16
ST_TAG_MASK: ffff

Initialize PATTERN TABLE
PT_SET: 512
PT_WAY: 4
SIG_DELTA_BIT: 7
C_SIG_BIT: 4
C_DELTA_BIT: 4

Initialize PREFETCH FILTER
FILTER_SET: 1024

*** ChampSim Multicore Out-of-Order Simulator ***

Warmup Instructions: 50000000
Simulation Instructions: 50000000
Number of CPUs: 1
LLC sets: 2048
LLC ways: 16
Off-chip DRAM Size: 4096 MB Channels: 1 Width: 64-bit Data Rate: 3200 MT/s

CPU 0 runs /home/ykhodke/ChampSim/dpc3_traces/server_039.champsimtrace.xz
CPU 0 L1D next line prefetcher
Heartbeat CPU 0 instructions: 10000003 cycles: 3451598 heartbeat IPC: 2.89721 cumulative IPC: 2.89721 (Simulation time: 0 hr 0 min 25 sec) 
Heartbeat CPU 0 instructions: 20000002 cycles: 6896163 heartbeat IPC: 2.90312 cumulative IPC: 2.90016 (Simulation time: 0 hr 0 min 50 sec) 
Heartbeat CPU 0 instructions: 30000001 cycles: 10342550 heartbeat IPC: 2.90159 cumulative IPC: 2.90064 (Simulation time: 0 hr 1 min 15 sec) 
Heartbeat CPU 0 instructions: 40000002 cycles: 13784328 heartbeat IPC: 2.90548 cumulative IPC: 2.90185 (Simulation time: 0 hr 1 min 40 sec) 
Heartbeat CPU 0 instructions: 50000001 cycles: 17225469 heartbeat IPC: 2.90601 cumulative IPC: 2.90268 (Simulation time: 0 hr 2 min 5 sec) 

Warmup complete CPU 0 instructions: 50000001 cycles: 17225469 (Simulation time: 0 hr 2 min 5 sec) 

Heartbeat CPU 0 instructions: 60000000 cycles: 23001485 heartbeat IPC: 1.7313 cumulative IPC: 1.7313 (Simulation time: 0 hr 2 min 33 sec) 
Heartbeat CPU 0 instructions: 70000000 cycles: 28774827 heartbeat IPC: 1.7321 cumulative IPC: 1.7317 (Simulation time: 0 hr 3 min 0 sec) 
Heartbeat CPU 0 instructions: 80000000 cycles: 34544522 heartbeat IPC: 1.73319 cumulative IPC: 1.7322 (Simulation time: 0 hr 3 min 28 sec) 
Heartbeat CPU 0 instructions: 90000001 cycles: 40317984 heartbeat IPC: 1.73206 cumulative IPC: 1.73216 (Simulation time: 0 hr 3 min 56 sec) 
Heartbeat CPU 0 instructions: 100000002 cycles: 46098486 heartbeat IPC: 1.72995 cumulative IPC: 1.73172 (Simulation time: 0 hr 4 min 23 sec) 
Finished CPU 0 instructions: 50000001 cycles: 28873017 cumulative IPC: 1.73172 (Simulation time: 0 hr 4 min 23 sec) 

ChampSim completed all CPUs

Region of Interest Statistics

CPU 0 cumulative IPC: 1.73172 instructions: 50000001 cycles: 28873017
L1D TOTAL     ACCESS:   19883412  HIT:   19388689  MISS:     494723
L1D LOAD      ACCESS:    6489948  HIT:    6268335  MISS:     221613
L1D RFO       ACCESS:    7089592  HIT:    7022634  MISS:      66958
L1D PREFETCH  ACCESS:    6303872  HIT:    6097720  MISS:     206152
L1D WRITEBACK ACCESS:          0  HIT:          0  MISS:          0
L1D PREFETCH  REQUESTED:    6505789  ISSUED:    6373526  USEFUL:      50005  USELESS:     156151
L1D AVERAGE MISS LATENCY: 15.0664 cycles
L1I TOTAL     ACCESS:   21420694  HIT:   15250900  MISS:    6169794
L1I LOAD      ACCESS:    9438336  HIT:    9437926  MISS:        410
L1I RFO       ACCESS:          0  HIT:          0  MISS:          0
L1I PREFETCH  ACCESS:   11982358  HIT:    5812974  MISS:    6169384
L1I WRITEBACK ACCESS:          0  HIT:          0  MISS:          0
L1I PREFETCH  REQUESTED:   11988631  ISSUED:   11982661  USEFUL:    4274008  USELESS:    1895368
L1I AVERAGE MISS LATENCY: 14.3607 cycles
L2C TOTAL     ACCESS:    9236374  HIT:    9236330  MISS:         44
L2C LOAD      ACCESS:     217250  HIT:     217250  MISS:          0
L2C RFO       ACCESS:      66752  HIT:      66752  MISS:          0
L2C PREFETCH  ACCESS:    8772294  HIT:    8772250  MISS:         44
L2C WRITEBACK ACCESS:     180078  HIT:     180078  MISS:          0
L2C PREFETCH  REQUESTED:    4204413  ISSUED:    4204222  USEFUL:          8  USELESS:          1
L2C AVERAGE MISS LATENCY: 30.2273 cycles
LLC TOTAL     ACCESS:     370147  HIT:     369241  MISS:        906
LLC LOAD      ACCESS:          0  HIT:          0  MISS:          0
LLC RFO       ACCESS:          0  HIT:          0  MISS:          0
LLC PREFETCH  ACCESS:     370147  HIT:     369241  MISS:        906
LLC WRITEBACK ACCESS:          0  HIT:          0  MISS:          0
LLC PREFETCH  REQUESTED:          0  ISSUED:          0  USEFUL:          0  USELESS:          0
LLC AVERAGE MISS LATENCY: 167.746 cycles
Major fault: 0 Minor fault: 362
CPU 0 L1D next line prefetcher final stats

DRAM Statistics
 CHANNEL 0
 RQ ROW_BUFFER_HIT:         64  ROW_BUFFER_MISS:        842
 DBUS_CONGESTED:         23
 WQ ROW_BUFFER_HIT:          0  ROW_BUFFER_MISS:          0  FULL:          0

 AVG_CONGESTED_CYCLE: 5

CPU 0 Branch Prediction Accuracy: 99.9091% MPKI: 0.1547 Average ROB Occupancy at Mispredict: 297.013

Branch types
NOT_BRANCH: 41495033 82.9901%
BRANCH_DIRECT_JUMP: 491309 0.982618%
BRANCH_INDIRECT: 0 0%
BRANCH_CONDITIONAL: 5595263 11.1905%
BRANCH_DIRECT_CALL: 1028409 2.05682%
BRANCH_INDIRECT_CALL: 180756 0.361512%
BRANCH_RETURN: 1209170 2.41834%
BRANCH_OTHER: 0 0%

