Initialize SIGNATURE TABLE
ST_SET: 1
ST_WAY: 256
ST_TAG_BIT: 16
ST_TAG_MASK: ffff

Initialize PATTERN TABLE
PT_SET: 512
PT_WAY: 4
SIG_DELTA_BIT: 7
C_SIG_BIT: 4
C_DELTA_BIT: 4

Initialize PREFETCH FILTER
FILTER_SET: 1024

*** ChampSim Multicore Out-of-Order Simulator ***

Warmup Instructions: 50000000
Simulation Instructions: 50000000
Number of CPUs: 1
LLC sets: 2048
LLC ways: 16
Off-chip DRAM Size: 4096 MB Channels: 1 Width: 64-bit Data Rate: 3200 MT/s

CPU 0 runs /home/ykhodke/ChampSim/dpc3_traces/server_016.champsimtrace.xz
CPU 0 L1D next line prefetcher
Heartbeat CPU 0 instructions: 10000000 cycles: 3509801 heartbeat IPC: 2.84916 cumulative IPC: 2.84916 (Simulation time: 0 hr 0 min 26 sec) 
Heartbeat CPU 0 instructions: 20000000 cycles: 7019338 heartbeat IPC: 2.84938 cumulative IPC: 2.84927 (Simulation time: 0 hr 0 min 52 sec) 
Heartbeat CPU 0 instructions: 30000001 cycles: 10524589 heartbeat IPC: 2.85286 cumulative IPC: 2.85047 (Simulation time: 0 hr 1 min 19 sec) 
Heartbeat CPU 0 instructions: 40000000 cycles: 13825561 heartbeat IPC: 3.02941 cumulative IPC: 2.89319 (Simulation time: 0 hr 1 min 34 sec) 
Heartbeat CPU 0 instructions: 50000002 cycles: 17061026 heartbeat IPC: 3.09075 cumulative IPC: 2.93066 (Simulation time: 0 hr 1 min 46 sec) 

Warmup complete CPU 0 instructions: 50000002 cycles: 17061026 (Simulation time: 0 hr 1 min 46 sec) 

Heartbeat CPU 0 instructions: 60000001 cycles: 25023172 heartbeat IPC: 1.25594 cumulative IPC: 1.25594 (Simulation time: 0 hr 2 min 3 sec) 
Heartbeat CPU 0 instructions: 70000001 cycles: 31888812 heartbeat IPC: 1.45653 cumulative IPC: 1.34882 (Simulation time: 0 hr 2 min 33 sec) 
Heartbeat CPU 0 instructions: 80000001 cycles: 38857663 heartbeat IPC: 1.43496 cumulative IPC: 1.37636 (Simulation time: 0 hr 3 min 4 sec) 
Heartbeat CPU 0 instructions: 90000000 cycles: 45599038 heartbeat IPC: 1.48338 cumulative IPC: 1.40164 (Simulation time: 0 hr 3 min 34 sec) 
Heartbeat CPU 0 instructions: 100000000 cycles: 52470388 heartbeat IPC: 1.45532 cumulative IPC: 1.41206 (Simulation time: 0 hr 4 min 5 sec) 
Finished CPU 0 instructions: 50000002 cycles: 35409363 cumulative IPC: 1.41206 (Simulation time: 0 hr 4 min 5 sec) 

ChampSim completed all CPUs

Region of Interest Statistics

CPU 0 cumulative IPC: 1.41206 instructions: 50000002 cycles: 35409363
L1D TOTAL     ACCESS:   17942080  HIT:   16674807  MISS:    1267273
L1D LOAD      ACCESS:    6520675  HIT:    5946063  MISS:     574612
L1D RFO       ACCESS:    5187295  HIT:    4965327  MISS:     221968
L1D PREFETCH  ACCESS:    6234110  HIT:    5763417  MISS:     470693
L1D WRITEBACK ACCESS:          0  HIT:          0  MISS:          0
L1D PREFETCH  REQUESTED:    6564155  ISSUED:    6458355  USEFUL:     111677  USELESS:     359036
L1D AVERAGE MISS LATENCY: 25.5774 cycles
L1I TOTAL     ACCESS:   21650530  HIT:   16945736  MISS:    4704794
L1I LOAD      ACCESS:    9931186  HIT:    9832530  MISS:      98656
L1I RFO       ACCESS:          0  HIT:          0  MISS:          0
L1I PREFETCH  ACCESS:   11719344  HIT:    7113206  MISS:    4606138
L1I WRITEBACK ACCESS:          0  HIT:          0  MISS:          0
L1I PREFETCH  REQUESTED:   11826913  ISSUED:   11797892  USEFUL:    2182332  USELESS:    2423793
L1I AVERAGE MISS LATENCY: 16.8435 cycles
L2C TOTAL     ACCESS:    8033309  HIT:    7288337  MISS:     744972
L2C LOAD      ACCESS:     570418  HIT:     434668  MISS:     135750
L2C RFO       ACCESS:     220333  HIT:     136162  MISS:      84171
L2C PREFETCH  ACCESS:    6814368  HIT:    6299769  MISS:     514599
L2C WRITEBACK ACCESS:     428190  HIT:     417738  MISS:      10452
L2C PREFETCH  REQUESTED:    4055291  ISSUED:    4049379  USEFUL:      16090  USELESS:     497768
L2C AVERAGE MISS LATENCY: 37.3427 cycles
LLC TOTAL     ACCESS:    1951866  HIT:    1916280  MISS:      35586
LLC LOAD      ACCESS:     135650  HIT:     131624  MISS:       4026
LLC RFO       ACCESS:      84168  HIT:      70593  MISS:      13575
LLC PREFETCH  ACCESS:    1590148  HIT:    1572260  MISS:      17888
LLC WRITEBACK ACCESS:     141900  HIT:     141803  MISS:         97
LLC PREFETCH  REQUESTED:          0  ISSUED:          0  USEFUL:       1565  USELESS:      16224
LLC AVERAGE MISS LATENCY: 178.342 cycles
Major fault: 0 Minor fault: 2384
CPU 0 L1D next line prefetcher final stats

DRAM Statistics
 CHANNEL 0
 RQ ROW_BUFFER_HIT:      11246  ROW_BUFFER_MISS:      24242
 DBUS_CONGESTED:      22617
 WQ ROW_BUFFER_HIT:       1490  ROW_BUFFER_MISS:      14752  FULL:          0

 AVG_CONGESTED_CYCLE: 6

CPU 0 Branch Prediction Accuracy: 99.7225% MPKI: 0.50376 Average ROB Occupancy at Mispredict: 130.892

Branch types
NOT_BRANCH: 40923953 81.8479%
BRANCH_DIRECT_JUMP: 487045 0.97409%
BRANCH_INDIRECT: 169158 0.338316%
BRANCH_CONDITIONAL: 6640825 13.2816%
BRANCH_DIRECT_CALL: 755588 1.51118%
BRANCH_INDIRECT_CALL: 133962 0.267924%
BRANCH_RETURN: 889567 1.77913%
BRANCH_OTHER: 0 0%

