Initialize SIGNATURE TABLE
ST_SET: 1
ST_WAY: 256
ST_TAG_BIT: 16
ST_TAG_MASK: ffff

Initialize PATTERN TABLE
PT_SET: 512
PT_WAY: 4
SIG_DELTA_BIT: 7
C_SIG_BIT: 4
C_DELTA_BIT: 4

Initialize PREFETCH FILTER
FILTER_SET: 1024

*** ChampSim Multicore Out-of-Order Simulator ***

Warmup Instructions: 50000000
Simulation Instructions: 50000000
Number of CPUs: 1
LLC sets: 2048
LLC ways: 16
Off-chip DRAM Size: 4096 MB Channels: 1 Width: 64-bit Data Rate: 3200 MT/s

CPU 0 runs /home/ykhodke/ChampSim/dpc3_traces/server_032.champsimtrace.xz
CPU 0 L1D next line prefetcher
Heartbeat CPU 0 instructions: 10000002 cycles: 3532106 heartbeat IPC: 2.83117 cumulative IPC: 2.83117 (Simulation time: 0 hr 0 min 26 sec) 
Heartbeat CPU 0 instructions: 20000003 cycles: 7064827 heartbeat IPC: 2.83068 cumulative IPC: 2.83093 (Simulation time: 0 hr 0 min 53 sec) 
Heartbeat CPU 0 instructions: 30000000 cycles: 10598002 heartbeat IPC: 2.83031 cumulative IPC: 2.83072 (Simulation time: 0 hr 1 min 19 sec) 
Heartbeat CPU 0 instructions: 40000003 cycles: 14132027 heartbeat IPC: 2.82964 cumulative IPC: 2.83045 (Simulation time: 0 hr 1 min 45 sec) 
Heartbeat CPU 0 instructions: 50000000 cycles: 17664846 heartbeat IPC: 2.8306 cumulative IPC: 2.83048 (Simulation time: 0 hr 2 min 11 sec) 

Warmup complete CPU 0 instructions: 50000004 cycles: 17664847 (Simulation time: 0 hr 2 min 11 sec) 

Heartbeat CPU 0 instructions: 60000002 cycles: 24402637 heartbeat IPC: 1.48417 cumulative IPC: 1.48417 (Simulation time: 0 hr 2 min 41 sec) 
Heartbeat CPU 0 instructions: 70000000 cycles: 31143375 heartbeat IPC: 1.48352 cumulative IPC: 1.48384 (Simulation time: 0 hr 3 min 12 sec) 
*** Reached end of trace for Core: 0 Repeating trace: /home/ykhodke/ChampSim/dpc3_traces/server_032.champsimtrace.xz
Heartbeat CPU 0 instructions: 80000003 cycles: 37881348 heartbeat IPC: 1.48413 cumulative IPC: 1.48394 (Simulation time: 0 hr 3 min 42 sec) 
Heartbeat CPU 0 instructions: 90000002 cycles: 44592215 heartbeat IPC: 1.49012 cumulative IPC: 1.48548 (Simulation time: 0 hr 4 min 12 sec) 
Heartbeat CPU 0 instructions: 100000001 cycles: 51311258 heartbeat IPC: 1.48831 cumulative IPC: 1.48604 (Simulation time: 0 hr 4 min 42 sec) 
Finished CPU 0 instructions: 50000002 cycles: 33646413 cumulative IPC: 1.48604 (Simulation time: 0 hr 4 min 42 sec) 

ChampSim completed all CPUs

Region of Interest Statistics

CPU 0 cumulative IPC: 1.48604 instructions: 50000002 cycles: 33646413
L1D TOTAL     ACCESS:   19822398  HIT:   17994117  MISS:    1828281
L1D LOAD      ACCESS:    6768714  HIT:    5974957  MISS:     793757
L1D RFO       ACCESS:    6564173  HIT:    6269692  MISS:     294481
L1D PREFETCH  ACCESS:    6489511  HIT:    5749468  MISS:     740043
L1D WRITEBACK ACCESS:          0  HIT:          0  MISS:          0
L1D PREFETCH  REQUESTED:    6815966  ISSUED:    6677475  USEFUL:     170086  USELESS:     569955
L1D AVERAGE MISS LATENCY: 18.8311 cycles
L1I TOTAL     ACCESS:   24309118  HIT:   18444884  MISS:    5864234
L1I LOAD      ACCESS:    9815601  HIT:    9807779  MISS:       7822
L1I RFO       ACCESS:          0  HIT:          0  MISS:          0
L1I PREFETCH  ACCESS:   14493517  HIT:    8637105  MISS:    5856412
L1I WRITEBACK ACCESS:          0  HIT:          0  MISS:          0
L1I PREFETCH  REQUESTED:   14510089  ISSUED:   14499903  USEFUL:    3378326  USELESS:    2478071
L1I AVERAGE MISS LATENCY: 15.6681 cycles
L2C TOTAL     ACCESS:   10862817  HIT:   10408737  MISS:     454080
L2C LOAD      ACCESS:     772771  HIT:     683606  MISS:      89165
L2C RFO       ACCESS:     292596  HIT:     254885  MISS:      37711
L2C PREFETCH  ACCESS:    9161096  HIT:    8839115  MISS:     321981
L2C WRITEBACK ACCESS:     636354  HIT:     631131  MISS:       5223
L2C PREFETCH  REQUESTED:    5292178  ISSUED:    5277673  USEFUL:       5348  USELESS:     316578
L2C AVERAGE MISS LATENCY: 31.4593 cycles
LLC TOTAL     ACCESS:    1530751  HIT:    1524036  MISS:       6715
LLC LOAD      ACCESS:      89165  HIT:      88710  MISS:        455
LLC RFO       ACCESS:      37711  HIT:      37710  MISS:          1
LLC PREFETCH  ACCESS:    1318013  HIT:    1311768  MISS:       6245
LLC WRITEBACK ACCESS:      85862  HIT:      85848  MISS:         14
LLC PREFETCH  REQUESTED:          0  ISSUED:          0  USEFUL:        369  USELESS:       2461
LLC AVERAGE MISS LATENCY: 153.989 cycles
Major fault: 0 Minor fault: 1195
CPU 0 L1D next line prefetcher final stats

DRAM Statistics
 CHANNEL 0
 RQ ROW_BUFFER_HIT:       1516  ROW_BUFFER_MISS:       5185
 DBUS_CONGESTED:        619
 WQ ROW_BUFFER_HIT:          3  ROW_BUFFER_MISS:         44  FULL:          0

 AVG_CONGESTED_CYCLE: 4

CPU 0 Branch Prediction Accuracy: 99.8762% MPKI: 0.2296 Average ROB Occupancy at Mispredict: 194.164

Branch types
NOT_BRANCH: 40726161 81.4523%
BRANCH_DIRECT_JUMP: 508374 1.01675%
BRANCH_INDIRECT: 180051 0.360102%
BRANCH_CONDITIONAL: 5999663 11.9993%
BRANCH_DIRECT_CALL: 1086739 2.17348%
BRANCH_INDIRECT_CALL: 206109 0.412218%
BRANCH_RETURN: 1292837 2.58567%
BRANCH_OTHER: 0 0%

