Initialize SIGNATURE TABLE
ST_SET: 1
ST_WAY: 256
ST_TAG_BIT: 16
ST_TAG_MASK: ffff

Initialize PATTERN TABLE
PT_SET: 512
PT_WAY: 4
SIG_DELTA_BIT: 7
C_SIG_BIT: 4
C_DELTA_BIT: 4

Initialize PREFETCH FILTER
FILTER_SET: 1024

*** ChampSim Multicore Out-of-Order Simulator ***

Warmup Instructions: 50000000
Simulation Instructions: 50000000
Number of CPUs: 1
LLC sets: 2048
LLC ways: 16
Off-chip DRAM Size: 4096 MB Channels: 1 Width: 64-bit Data Rate: 3200 MT/s

CPU 0 runs /home/ykhodke/ChampSim/dpc3_traces/spec_gobmk_002.champsimtrace.xz
CPU 0 L1D next line prefetcher
Heartbeat CPU 0 instructions: 10000001 cycles: 3287709 heartbeat IPC: 3.04163 cumulative IPC: 3.04163 (Simulation time: 0 hr 0 min 21 sec) 
Heartbeat CPU 0 instructions: 20000000 cycles: 6619422 heartbeat IPC: 3.00146 cumulative IPC: 3.02141 (Simulation time: 0 hr 0 min 43 sec) 
Heartbeat CPU 0 instructions: 30000000 cycles: 9957395 heartbeat IPC: 2.99583 cumulative IPC: 3.01284 (Simulation time: 0 hr 1 min 5 sec) 
Heartbeat CPU 0 instructions: 40000000 cycles: 13266884 heartbeat IPC: 3.02161 cumulative IPC: 3.01503 (Simulation time: 0 hr 1 min 28 sec) 
Heartbeat CPU 0 instructions: 50000003 cycles: 16530469 heartbeat IPC: 3.06412 cumulative IPC: 3.02472 (Simulation time: 0 hr 1 min 50 sec) 

Warmup complete CPU 0 instructions: 50000003 cycles: 16530469 (Simulation time: 0 hr 1 min 50 sec) 

Heartbeat CPU 0 instructions: 60000003 cycles: 23950430 heartbeat IPC: 1.34772 cumulative IPC: 1.34772 (Simulation time: 0 hr 2 min 13 sec) 
Heartbeat CPU 0 instructions: 70000001 cycles: 31318006 heartbeat IPC: 1.3573 cumulative IPC: 1.35249 (Simulation time: 0 hr 2 min 35 sec) 
Heartbeat CPU 0 instructions: 80000000 cycles: 38553563 heartbeat IPC: 1.38206 cumulative IPC: 1.36221 (Simulation time: 0 hr 2 min 58 sec) 
Heartbeat CPU 0 instructions: 90000001 cycles: 46075170 heartbeat IPC: 1.3295 cumulative IPC: 1.35388 (Simulation time: 0 hr 3 min 19 sec) 
Heartbeat CPU 0 instructions: 100000003 cycles: 53837259 heartbeat IPC: 1.28831 cumulative IPC: 1.34024 (Simulation time: 0 hr 3 min 41 sec) 
Finished CPU 0 instructions: 50000000 cycles: 37306790 cumulative IPC: 1.34024 (Simulation time: 0 hr 3 min 41 sec) 

ChampSim completed all CPUs

Region of Interest Statistics

CPU 0 cumulative IPC: 1.34024 instructions: 50000000 cycles: 37306790
L1D TOTAL     ACCESS:   17657882  HIT:   17534755  MISS:     123127
L1D LOAD      ACCESS:    6674916  HIT:    6640649  MISS:      34267
L1D RFO       ACCESS:    4387511  HIT:    4344858  MISS:      42653
L1D PREFETCH  ACCESS:    6595455  HIT:    6549248  MISS:      46207
L1D WRITEBACK ACCESS:          0  HIT:          0  MISS:          0
L1D PREFETCH  REQUESTED:    6677379  ISSUED:    6610014  USEFUL:      17145  USELESS:      29244
L1D AVERAGE MISS LATENCY: 52.7954 cycles
L1I TOTAL     ACCESS:   26512611  HIT:   22820421  MISS:    3692190
L1I LOAD      ACCESS:    8952026  HIT:    8879543  MISS:      72483
L1I RFO       ACCESS:          0  HIT:          0  MISS:          0
L1I PREFETCH  ACCESS:   17560585  HIT:   13940878  MISS:    3619707
L1I WRITEBACK ACCESS:          0  HIT:          0  MISS:          0
L1I PREFETCH  REQUESTED:   17628835  ISSUED:   17620110  USEFUL:    1459802  USELESS:    2159905
L1I AVERAGE MISS LATENCY: 14.1984 cycles
L2C TOTAL     ACCESS:    4578470  HIT:    4539108  MISS:      39362
L2C LOAD      ACCESS:      68699  HIT:      55996  MISS:      12703
L2C RFO       ACCESS:      42528  HIT:      39656  MISS:       2872
L2C PREFETCH  ACCESS:    4393036  HIT:    4369381  MISS:      23655
L2C WRITEBACK ACCESS:      74207  HIT:      74075  MISS:        132
L2C PREFETCH  REQUESTED:    1000045  ISSUED:    1000041  USEFUL:       2453  USELESS:      21223
L2C AVERAGE MISS LATENCY: 131.975 cycles
LLC TOTAL     ACCESS:     113413  HIT:      82976  MISS:      30437
LLC LOAD      ACCESS:      12703  HIT:       4400  MISS:       8303
LLC RFO       ACCESS:       2872  HIT:       1238  MISS:       1634
LLC PREFETCH  ACCESS:      79661  HIT:      59723  MISS:      19938
LLC WRITEBACK ACCESS:      18177  HIT:      17615  MISS:        562
LLC PREFETCH  REQUESTED:          0  ISSUED:          0  USEFUL:       1462  USELESS:      18272
LLC AVERAGE MISS LATENCY: 185.189 cycles
Major fault: 0 Minor fault: 2788
CPU 0 L1D next line prefetcher final stats

DRAM Statistics
 CHANNEL 0
 RQ ROW_BUFFER_HIT:       2555  ROW_BUFFER_MISS:      27320
 DBUS_CONGESTED:      14013
 WQ ROW_BUFFER_HIT:        751  ROW_BUFFER_MISS:      12715  FULL:          0

 AVG_CONGESTED_CYCLE: 4

CPU 0 Branch Prediction Accuracy: 93.9974% MPKI: 10.2447 Average ROB Occupancy at Mispredict: 39.772

Branch types
NOT_BRANCH: 41466059 82.9321%
BRANCH_DIRECT_JUMP: 464313 0.928626%
BRANCH_INDIRECT: 32 6.4e-05%
BRANCH_CONDITIONAL: 7069454 14.1389%
BRANCH_DIRECT_CALL: 499587 0.999174%
BRANCH_INDIRECT_CALL: 342 0.000684%
BRANCH_RETURN: 499906 0.999812%
BRANCH_OTHER: 0 0%

